 ****** HSPICE -- Q-2020.03 linux64 (Mar  8 2020) ******                        
  Copyright (c) 1986 - 2023 by Synopsys, Inc. All Rights Reserved.              
  This software and the associated documentation are proprietary
  to Synopsys, Inc. This software may only be used in accordance
  with the terms and conditions of a written license agreement with
  Synopsys, Inc. All other use, reproduction, or distribution of
  this software is strictly prohibited.
  Input File: addertest.sp                                                      
  Command line options: /usr/cad/synopsys/hspice/cur/hspice/linux64/hspice -i addertest.sp -o addertest.lis
  Start time: Tue Dec 19 14:56:04 2023
 lic:  
 lic: FLEXlm: SDK_12.6 
 lic: USER:   110501539            HOSTNAME: ares-athena 
 lic: HOSTID: "e61f13c2e205"       PID:      26327 
 lic: Using FLEXlm license file: 
 lic: 26585@lshc 
 lic: Checkout 1 hspice 
 lic: License/Maintenance for hspice will expire on 31-mar-2024/2023.03 
 lic: 319(in_use)/900(total) FLOATING license(s) on SERVER 26585@lshc 
 lic:   
  **warning** (HW3adder.sp:2) Global net name "vdd" in subckt pin list. The pin will be connected to the local net. Recommend to not use global net names in subckt pin lists.
1****** HSPICE -- Q-2020.03 linux64 (Mar  8 2020) ******                        
 ******  
 .protect

 ****** circuit name directory
 circuit number to circuit name directory
   number circuitname                     definition         multiplier
        0 main circuit
        1 xthreeadder.                    threeadder         1.00 
        2 xaddlayy.                       addlayy            1.00 
        3 xthreeadder.xadder1.            adder              1.00 
        4 xthreeadder.xadder2.            adder              1.00 
        5 xthreeadder.xadder3.            adder              1.00 
        6 xaddlayy.x_pm_addlayy%ci1.      pm_addlayy%ci1     1.00 
        7 xaddlayy.x_pm_addlayy%y0.       pm_addlayy%y0      1.00 
        8 xaddlayy.x_pm_addlayy%ci0.      pm_addlayy%ci0     1.00 
        9 xaddlayy.x_pm_addlayy%4.        pm_addlayy%4       1.00 
       10 xaddlayy.x_pm_addlayy%5.        pm_addlayy%5       1.00 
       11 xaddlayy.x_pm_addlayy%6.        pm_addlayy%6       1.00 
       12 xaddlayy.x_pm_addlayy%7.        pm_addlayy%7       1.00 
       13 xaddlayy.x_pm_addlayy%8.        pm_addlayy%8       1.00 
       14 xaddlayy.x_pm_addlayy%9.        pm_addlayy%9       1.00 
       15 xaddlayy.x_pm_addlayy%gnd.      pm_addlayy%gnd     1.00 
       16 xaddlayy.x_pm_addlayy%vdd.      pm_addlayy%vdd     1.00 
       17 xaddlayy.x_pm_addlayy%s0.       pm_addlayy%s0      1.00 
       18 xaddlayy.x_pm_addlayy%ci2.      pm_addlayy%ci2     1.00 
       19 xaddlayy.x_pm_addlayy%x1.       pm_addlayy%x1      1.00 
       20 xaddlayy.x_pm_addlayy%y1.       pm_addlayy%y1      1.00 
       21 xaddlayy.x_pm_addlayy%16.       pm_addlayy%16      1.00 
       22 xaddlayy.x_pm_addlayy%17.       pm_addlayy%17      1.00 
       23 xaddlayy.x_pm_addlayy%18.       pm_addlayy%18      1.00 
       24 xaddlayy.x_pm_addlayy%19.       pm_addlayy%19      1.00 
       25 xaddlayy.x_pm_addlayy%20.       pm_addlayy%20      1.00 
       26 xaddlayy.x_pm_addlayy%21.       pm_addlayy%21      1.00 
       27 xaddlayy.x_pm_addlayy%s1.       pm_addlayy%s1      1.00 
       28 xaddlayy.x_pm_addlayy%cout.     pm_addlayy%cout    1.00 
       29 xaddlayy.x_pm_addlayy%x2.       pm_addlayy%x2      1.00 
       30 xaddlayy.x_pm_addlayy%y2.       pm_addlayy%y2      1.00 
       31 xaddlayy.x_pm_addlayy%26.       pm_addlayy%26      1.00 
       32 xaddlayy.x_pm_addlayy%27.       pm_addlayy%27      1.00 
       33 xaddlayy.x_pm_addlayy%28.       pm_addlayy%28      1.00 
       34 xaddlayy.x_pm_addlayy%29.       pm_addlayy%29      1.00 
       35 xaddlayy.x_pm_addlayy%30.       pm_addlayy%30      1.00 
       36 xaddlayy.x_pm_addlayy%31.       pm_addlayy%31      1.00 
       37 xaddlayy.x_pm_addlayy%s2.       pm_addlayy%s2      1.00 
       38 xaddlayy.x_pm_addlayy%x0.       pm_addlayy%x0      1.00 
       39 xaddlayy.x_pm_addlayy%34.       pm_addlayy%34      1.00 
       40 xaddlayy.x_pm_addlayy%35.       pm_addlayy%35      1.00 
       41 xaddlayy.x_pm_addlayy%36.       pm_addlayy%36      1.00 
       42 xaddlayy.x_pm_addlayy%37.       pm_addlayy%37      1.00 
       43 xaddlayy.x_pm_addlayy%38.       pm_addlayy%38      1.00 
       44 xaddlayy.x_pm_addlayy%39.       pm_addlayy%39      1.00 
       45 xaddlayy.x_pm_addlayy%40.       pm_addlayy%40      1.00 
       46 xaddlayy.x_pm_addlayy%41.       pm_addlayy%41      1.00 
       47 xaddlayy.x_pm_addlayy%42.       pm_addlayy%42      1.00 
       48 xaddlayy.x_pm_addlayy%43.       pm_addlayy%43      1.00 
       49 xaddlayy.x_pm_addlayy%44.       pm_addlayy%44      1.00 
       50 xaddlayy.x_pm_addlayy%45.       pm_addlayy%45      1.00 
       51 xaddlayy.x_pm_addlayy%46.       pm_addlayy%46      1.00 
       52 xaddlayy.x_pm_addlayy%47.       pm_addlayy%47      1.00 
       53 xaddlayy.x_pm_addlayy%48.       pm_addlayy%48      1.00 
       54 xaddlayy.x_pm_addlayy%49.       pm_addlayy%49      1.00 
       55 xaddlayy.x_pm_addlayy%50.       pm_addlayy%50      1.00 
       56 xaddlayy.x_pm_addlayy%51.       pm_addlayy%51      1.00 
  **info** (addertest.sp:22) DC voltage reset to initial transient source value in source 0:vci0. new dc=0.0000D+00
  **warning** (addertest.sp:10) Both nodes of element vgnd are connected together; Line ignored.
 ***************************************************************************
 ***        model parameters  model name:   0:n_18.1   model type:nmos   ***
 ***************************************************************************

   *** general parameters ***
    deriv=   0.           

   ***  level 49  model parameters  ***

      hspver=    2006.03               level=         49         
     version=        3.2            paramchk=          0         
      apwarn=          1                lite=          0         
      vgslim=          0             binUnit=          1         
      capMod=          2               xpart=          1         
      mobMod=          1              nqsMod=          0         
      stiMod=          0                 elm=          5         
    sfvtflag=          0                 tox=    4.2e-09 meter   
          xj=    1.6e-07 meter       binflag=          0         
        lmin=    1.8e-07 meter          lmax=      5e-05 meter   
        wmin=    2.5e-07 meter          wmax=     0.0001 meter   
        lref=          0 meter          wref=          0 meter   
        lint=  1.587e-08 meter          wint=  1.022e-08 meter   
       lmult=          1               wmult=          1         
          ll= -1.062e-15                 lln=          1         
          lw=  2.996e-15                 lwn=          1         
         lwl=          0                  wl=          0         
         wln=          1                  ww=  7.262e-16         
         wwn=          1                 wwl=          0         
         dwg= -3.396e-09 m/V             dwb=  1.346e-09 m/V^1/2 
          xl=  -1.05e-08                  xw=          0         
          a0=       1.93                 ags=     0.5072 V^-1    
          b0=  1.486e-06 meter            b1=  9.064e-06 meter   
        keta=    0.01752 V^-1           voff=    -0.1088 V       
       ngate=      1e+23 cm^-3           vbx=          0 V       
         vbm=         -3 V                xt=   1.55e-07 meter   
        vth0=     0.3075 V               nch= 3.7446e+17 cm^-3   
        nsub=      6e+16 cm^-3           nlx=  4.279e-07 meter   
      gamma1=          0 V^-1/2       gamma2=          0 V^-1/2  
          k1=     0.4578 V^1/2            k2=   -0.02638         
          k3=     -10.88                 k3b=     0.2379 V^-1    
          w0= -8.813e-08 meter          dvt0=     0.4042         
        dvt1=     0.3237                dvt2=    -0.8602 V^-1    
       dvt0w=      0.383 meter^-1      dvt1w=     600000 meter^-1
       dvt2w=     -0.025 V^-1           dsub=   0.001592         
        eta0=   0.001004                etab=  -0.001459 V^-1    
          u0=      324.1 cm^2/V/sec         ua= -9.201e-10 m/V     
          ub=  1.907e-18 (m/V)^2          uc=  4.355e-11 V^-1    
        vsat=      72580 m/sec            a1=          0 v^-1    
          a2=          1               delta=       0.01 V       
        rdsw=      4.905 ohm-um         prwg=          0 V^-1    
        prwb=          0 V^-1/2           wr=          1         
        pclm=      1.091             pdiblc1=   0.003061         
     pdiblc2=      1e-06             pdiblcb=          0 V^-1    
      pscbe1=  4.866e+08 V/m          pscbe2=    2.8e-07 V/m     
       drout=   0.001592                pvag=    -0.2958         
     nfactor=      1.038                cdsc=   0.002275 f/m^2   
       cdscb=  0.0008241 f/V/m^2       cdscd=    -0.0005 f/V/m^2 
         cit=  -0.001511 f/m^2        alpha0=          0 m/V     
       beta0=         30 V               dlc=      4e-08 meter   
         dwc=          0 meter           clc=      1e-07 meter   
         cle=        0.6                cgso=   2.35e-10 f/m     
        cgdo=   2.35e-10 f/m            cgbo=          0 f/m     
        cgsl=          0 f/m            cgdl=          0 f/m     
      ckappa=        0.6                  cf=  1.533e-10 f/m     
        acde=          1 m/V            moin=         15 V^1/2   
        toxm=    4.2e-09 m            dtoxcv=          0 m       
         vfb (not used)                alpha1=          0 1/V     
        ijth=          0 A              noff=          1         
      voffcv=          0                 tcj=          0 1/K     
       tcjsw=          0 1/K          tcjswg=          0 1/K     
         tpb=          0 V/K           tpbsw=          0 V/K     
      tpbswg=          0 V/K             llc=  -6.64e-15         
         lwc=          0                lwlc=          0         
         wlc=          0                 wwc=          0         
        wwlc=          0                tnom=     298.15 K       
         kt1=    -0.2255 V              kt1l= -4.275e-09         
         kt2=   -0.02527                 ute=     -1.186         
         ua1=  2.253e-09 m/V             ub1= -2.673e-18 (m/V)^2 
         uc1= -3.832e-11 m/V^2            at=      14490 m/s     
         prt=     -10.18         
         using Berkeley noise model       noiMod=          1         
        noia=      1e+20                noib=      50000         
        noic=   -1.4e-12                  em=    4.2e+07         
          ef=          1                  af=          1         
          kf=          0              gdsnoi=-1.23457e-29         
         using Hspice diodes            using ACM 
         acm=         3                 hdif=   2.6e-07 meter    
        ldif=     8e-08 meter             js=     1e-06 amp/m^2  
         jsw=     7e-11 amp/m            xti=         3          
           n=         1                   cj=   0.00103 f/m^2    
          mj=     0.443                   pb=     0.823 V        
        cjsw=  1.34e-10 f/m             mjsw=      0.33          
         php=      0.88 V               pbsw (not used)           
      cjgate=     5e-10 f/m            cjswg (not used)           
       mjswg (not used)                 pbswg (not used)           
         la0=    -0.4667                lags=     0.3028         
       lketa=   -0.01942               lvoff=  -0.004208         
       lvth0=     -0.001                lnlx= -2.854e-08         
       leta0=   0.001574            lpdiblc2=  -0.004752         
         wa0=   -0.04731                wags=   0.004242         
       wvoff= -0.0004078               wvth0=    0.06027         
         wu0=       0.54                 wua=  -1.88e-11         
       wvsat=       5066                wute=    0.06373         
         wat=       7067                 pa0=   -0.02649         
       pvoff= -0.0003788                 pw0=    1.3e-09         
         pub=    3.8e-20         
 ***************************************************************************
 ***        model parameters  model name:   0:p_18.1   model type:pmos   ***
 ***************************************************************************

   *** general parameters ***
    deriv=   0.           

   ***  level 49  model parameters  ***

      hspver=    2006.03               level=         49         
     version=        3.2            paramchk=          0         
      apwarn=          1                lite=          0         
      vgslim=          0             binUnit=          1         
      capMod=          2               xpart=          1         
      mobMod=          3              nqsMod=          0         
      stiMod=          0                 elm=          5         
    sfvtflag=          0                 tox=    4.2e-09 meter   
          xj=      1e-07 meter       binflag=          0         
        lmin=    1.8e-07 meter          lmax=      5e-05 meter   
        wmin=    2.5e-07 meter          wmax=     0.0001 meter   
        lref=          0 meter          wref=          0 meter   
        lint= -1.041e-08 meter          wint= -1.525e-07 meter   
       lmult=          1               wmult=          1         
          ll=  6.635e-15                 lln=          1         
          lw= -2.873e-16                 lwn=          1         
         lwl=          0                  wl=          0         
         wln=          1                  ww=  1.236e-14         
         wwn=          1                 wwl=          0         
         dwg= -1.251e-07 m/V             dwb= -1.039e-07 m/V^1/2 
          xl=     -2e-09                  xw=          0         
          a0=       1.35                 ags=     0.3818 V^-1    
          b0= -3.088e-07 meter            b1=          0 meter   
        keta=    0.01044 V^-1           voff=    -0.1073 V       
       ngate=      1e+23 cm^-3           vbx=          0 V       
         vbm=         -3 V                xt=   1.55e-07 meter   
        vth0=    -0.4555 V               nch=  6.231e+17 cm^-3   
        nsub=      6e+16 cm^-3           nlx=   2.53e-07 meter   
      gamma1=          0 V^-1/2       gamma2=          0 V^-1/2  
          k1=     0.5704 V^1/2            k2=   0.006973         
          k3=     -2.833                 k3b=      1.326 V^-1    
          w0= -1.943e-07 meter          dvt0=     0.4885         
        dvt1=    0.07578                dvt2=     0.1187 V^-1    
       dvt0w=    -0.1261 meter^-1      dvt1w=      24790 meter^-1
       dvt2w=     0.6915 V^-1           dsub=     1.9191         
        eta0=      1.071                etab=    -0.9291 V^-1    
          u0=      124.5 cm^2/V/sec         ua=   1.54e-09 m/V     
          ub=  2.646e-19 (m/V)^2          uc=   -0.09587 V^-1    
        vsat=      53400 m/sec            a1=          0 v^-1    
          a2=          1               delta=       0.01 V       
        rdsw=      792.1 ohm-um         prwg=          0 V^-1    
        prwb=          0 V^-1/2           wr=          1         
        pclm=      2.653             pdiblc1=          0         
     pdiblc2=      5e-06             pdiblcb=          0 V^-1    
      pscbe1=  4.866e+08 V/m          pscbe2=    2.8e-07 V/m     
       drout=      1.457                pvag=      1.262         
     nfactor=      1.535                cdsc=  0.0007578 f/m^2   
       cdscb=     0.0001 f/V/m^2       cdscd= -2.883e-05 f/V/m^2 
         cit=  -0.001067 f/m^2        alpha0=          0 m/V     
       beta0=         30 V               dlc=   7.01e-08 meter   
         dwc=          0 meter           clc=      1e-07 meter   
         cle=        0.6                cgso=  2.054e-10 f/m     
        cgdo=  2.054e-10 f/m            cgbo=          0 f/m     
        cgsl=          0 f/m            cgdl=          0 f/m     
      ckappa=        0.6                  cf=  1.533e-10 f/m     
        acde=          1 m/V            moin=         15 V^1/2   
        toxm=    4.2e-09 m            dtoxcv=          0 m       
         vfb (not used)                alpha1=          0 1/V     
        ijth=          0 A              noff=          1         
      voffcv=          0                 tcj=          0 1/K     
       tcjsw=          0 1/K          tcjswg=          0 1/K     
         tpb=          0 V/K           tpbsw=          0 V/K     
      tpbswg=          0 V/K             llc=  -1.31e-14         
         lwc=          0                lwlc=          0         
         wlc=          0                 wwc=          0         
        wwlc=          0                tnom=     298.15 K       
         kt1=    -0.2294 V              kt1l= -8.204e-09         
         kt2=  -0.009487                 ute=    -0.4484         
         ua1=  4.571e-09 m/V             ub1= -6.026e-18 (m/V)^2 
         uc1=    -0.0985 m/V^2            at=      12030 m/s     
         prt=          0         
         using Berkeley noise model       noiMod=          1         
        noia=      1e+20                noib=      50000         
        noic=   -1.4e-12                  em=    4.2e+07         
          ef=          1                  af=          1         
          kf=          0              gdsnoi=-1.23457e-29         
         using Hspice diodes            using ACM 
         acm=         3                 hdif=   2.6e-07 meter    
        ldif=     8e-08 meter             js=     3e-06 amp/m^2  
         jsw=  4.22e-11 amp/m            xti=         3          
           n=         1                   cj=   0.00124 f/m^2    
          mj=     0.395                   pb=     0.762 V        
        cjsw=  1.74e-10 f/m             mjsw=     0.324          
         php=     0.665 V               pbsw (not used)           
      cjgate=  1.74e-10 f/m            cjswg (not used)           
       mjswg (not used)                 pbswg (not used)           
         la0=     -0.281                lags=    0.04454         
       lketa=     -0.012               lvoff= -0.0009871         
       lvth0=     0.0044                lnlx= -1.584e-08         
         lua= -8.253e-11            lpdiblc2=   0.003012         
         wa0=   -0.04807                wags=   -0.04277         
       wvoff=  -0.009816               wvth0=    -0.0148         
         wua=   2.63e-09               wvsat=     -14200         
       wrdsw=      10.07                wute=    -0.2682         
         wat=      -6405                wprt=      226.6         
         pa0=    0.08661                pags=   -0.04076         
       pvoff= -9.833e-05               pvth0=     0.0032         
         pua=  5.855e-11               pvsat=       -434         
 

 Warning: Pd = 1.95e-06 is less than Weff = 1.97883e-06 in BSIM3 model 0:n_18.1 element m1 with W = 2e-06, L = 1.695e-07

             
 Summary of Linear Res Distribution Info
 ---------------------------------------
 |Range          |Total     |Percent(%)|
 |---------------+----------+----------|
 |1e-03  ~  1e-02|12        |1.1594    |
 |1e-02  ~  1e-01|243       |23.4783   |
 |1e-01  ~  1e+00|187       |18.0676   |
 |1e+00  ~  1e+03|591       |57.1014   |
 |1e+03  ~  1e+05|2         |0.1932    |
 ---------------------------------------
              
             
 Summary of Linear Cap Distribution Info
 ---------------------------------------
 |Range          |Total     |Percent(%)|
 |---------------+----------+----------|
 |1e-17  ~  1e-16|120       |29.0557   |
 |1e-16  ~  1e-15|229       |55.4479   |
 |1e-15  ~  1e-14|62        |15.0121   |
 |1e-14  ~  1e-13|2         |0.4843    |
 ---------------------------------------
              
             
 Summary of Detailed RC Type Statistics
 -------------------------
 |Element Type|Number    |
 |------------+----------|
 |Constant Res|1035      |
 |            |          |
 |Constant Cap|413       |
 -------------------------
              
  
             
 Warning:'1 connection nodes' occurs 1 times
 Summary of 1 connection from the following nodes:
 -----------------------
 |Node      |Subckt    |
 |----------+----------|
 |s1_pex    |0         |
 -----------------------
              
      
 *****************************************************************
 ******  option summary
 ******
 runlvl  = 3         bypass  = 2.0000    
  Opening plot unit= 15
 file=addertest.pa0

 **info** dc convergence successful at Newton-Raphson method 
 ******  
 .protect

 ****** operating point information tnom=  25.000 temp=  25.000 ******
 ****** operating point status is voltage   simulation time is     0.     
     node    =voltage       node    =voltage       node    =voltage

 + 0:ci0     =   0.       0:ci1     =   1.0000   0:ci1_pex =   1.0000 
 + 0:ci2     =   1.0000   0:ci2_pex =   1.0000   0:cout    =   1.0000 
 + 0:cout_pex=   1.0000   0:s0      =   9.0198n  0:s0_pex  =   9.8361n
 + 0:s1      =   1.0000   0:s1_pex  =   1.0000   0:s2      =   1.0000 
 + 0:s2_pex  =   1.0000   0:vdd     =   1.0000   0:x0      =   1.0000 
 + 0:x1      =   1.0000   0:x2      =   1.0000   0:y0      =   1.0000 
 + 0:y1      =   1.0000   0:y2      =   1.0000   2:n_16_m57= 975.4895m
 + 2:n_16_m58= 975.4895m  2:n_16_m59= 975.4895m  2:n_16_m60= 975.4895m
 + 2:n_17_m14=   5.8092n  2:n_17_m15=   5.7410n  2:n_17_m17=   5.7340n
 + 2:n_17_m20=   5.8124n  2:n_17_m56=   5.8092n  2:n_17_m59=   5.9836n
 + 2:n_17_m61=   5.8923n  2:n_17_m62=   5.8124n  2:n_18_m17=   2.0722n
 + 2:n_18_m18=   2.0298n  2:n_18_m19=   1.9680n  2:n_19_m20=  72.2067p
 + 2:n_19_m21=  72.1860p  2:n_19_m22=  72.2678p  2:n_19_m23=  72.3271p
 + 2:n_20_m62= 271.4748m  2:n_20_m63= 271.4748m  2:n_20_m66= 271.4748m
 + 2:n_20_m67= 271.4748m  2:n_20_m68= 271.4748m  2:n_21_m20=  79.9369n
 + 2:n_21_m26=  79.3652n  2:n_21_m27=  79.8967n  2:n_21_m62=  80.8701n
 + 2:n_21_m65=  79.9401n  2:n_21_m69=  79.8967n  2:n_26_m71= 975.4879m
 + 2:n_26_m72= 975.4879m  2:n_26_m73= 975.4879m  2:n_26_m74= 975.4879m
 + 2:n_27_m28=   5.8091n  2:n_27_m29=   5.7408n  2:n_27_m31=   5.7338n
 + 2:n_27_m34=   5.8122n  2:n_27_m70=   5.8091n  2:n_27_m73=   5.9835n
 + 2:n_27_m75=   5.8921n  2:n_27_m76=   5.8122n  2:n_28_m31=   2.0721n
 + 2:n_28_m32=   2.0298n  2:n_28_m33=   1.9680n  2:n_29_m34=  72.2066p
 + 2:n_29_m35=  72.1859p  2:n_29_m36=  72.2676p  2:n_29_m37=  72.3270p
 + 2:n_30_m76= 271.4748m  2:n_30_m77= 271.4748m  2:n_30_m80= 271.4748m
 + 2:n_30_m81= 271.4748m  2:n_30_m82= 271.4748m  2:n_31_m34=  79.9370n
 + 2:n_31_m40=  79.3653n  2:n_31_m41=  79.8968n  2:n_31_m76=  80.8701n
 + 2:n_31_m79=  79.9401n  2:n_31_m83=  79.8968n  2:n_34_m46= 565.1912m
 + 2:n_34_m47= 565.1912m  2:n_35_m49=   1.0000   2:n_35_m50=   1.0000 
 + 2:n_36_m50= 999.9999m  2:n_36_m51= 999.9999m  2:n_37_m60= 940.2276m
 + 2:n_37_m61= 940.2276m  2:n_38_m63= 738.7607m  2:n_38_m64= 738.7607m
 + 2:n_39_m64= 684.8415m  2:n_39_m65= 684.8415m  2:n_40_m74= 940.2280m
 + 2:n_40_m75= 940.2280m  2:n_41_m77= 738.7452m  2:n_41_m78= 738.7452m
 + 2:n_42_m78= 684.8370m  2:n_42_m79= 684.8370m  2:n_43_m1_=  19.1927n
 + 2:n_43_m2_=  18.9142n  2:n_44_m10=   5.9641n  2:n_44_m11=   6.0214n
 + 2:n_45_m11=  11.7616n  2:n_45_m12=  11.8284n  2:n_46_m15=   2.9630n
 + 2:n_46_m16=   2.9204n  2:n_47_m24=  26.8020n  2:n_47_m25=  27.0617n
 + 2:n_48_m25=  53.0621n  2:n_48_m26=  53.3647n  2:n_49_m29=   2.9629n
 + 2:n_49_m30=   2.9203n  2:n_4_m43_= 260.6872m  2:n_4_m44_= 260.6872m
 + 2:n_4_m45_= 260.6872m  2:n_4_m46_= 260.6872m  2:n_50_m38=  26.8020n
 + 2:n_50_m39=  27.0617n  2:n_51_m39=  53.0622n  2:n_51_m40=  53.3648n
 + 2:n_5_m0_g=  37.8033n  2:n_5_m1_s=  37.3571n  2:n_5_m3_s=  37.8168n
 + 2:n_5_m42_=  37.8033n  2:n_5_m45_=  38.4920n  2:n_5_m47_=  37.8525n
 + 2:n_5_m48_=  37.8172n  2:n_5_m6_g=  37.8172n  2:n_6_m3_d=  45.8039p
 + 2:n_6_m4_s=  45.8039p  2:n_6_m5_d=  45.8038p  2:n_7_m6_d=   3.2228n
 + 2:n_7_m7_s=   3.1603n  2:n_7_m8_d=   3.0805n  2:n_7_m9_s=   3.0989n
 + 2:n_8_m48_=   1.0000   2:n_8_m49_=   1.0000   2:n_8_m52_=   1.0000 
 + 2:n_8_m53_=   1.0000   2:n_8_m54_=   1.0000   2:n_9_m12_= 999.9999m
 + 2:n_9_m13_= 999.9999m  2:n_9_m48_= 999.9999m  2:n_9_m51_= 999.9999m
 + 2:n_9_m55_= 999.9999m  2:n_9_m6_s= 999.9999m  2:n_ci0_m1=   0.     
 + 2:n_ci0_m3=   0.       2:n_ci0_m4=   0.       2:n_ci0_m5=   0.     
 + 2:n_ci0_m5=   0.       2:n_ci0_m9=   0.       2:n_ci1_m0=   1.0000 
 + 2:n_ci1_m1=   1.0000   2:n_ci1_m2=   1.0000   2:n_ci1_m2=   1.0000 
 + 2:n_ci1_m4=   1.0000   2:n_ci1_m5=   1.0000   2:n_ci1_m6=   1.0000 
 + 2:n_ci1_m6=   1.0000   2:n_ci2_m1=   1.0000   2:n_ci2_m3=   1.0000 
 + 2:n_ci2_m3=   1.0000   2:n_ci2_m4=   1.0000   2:n_ci2_m5=   1.0000 
 + 2:n_ci2_m7=   1.0000   2:n_ci2_m7=   1.0000   2:n_ci2_m8=   1.0000 
 + 2:n_cout_m=   1.0000   2:n_cout_m=   1.0000   2:n_gnd_m0=  51.4722p
 + 2:n_gnd_m0= 224.8508p  2:n_gnd_m1= 223.8996p  2:n_gnd_m1= 423.9576p
 + 2:n_gnd_m1= 224.3254p  2:n_gnd_m1= 142.4366p  2:n_gnd_m1= 167.7302p
 + 2:n_gnd_m1= 168.2441p  2:n_gnd_m2=  69.5170p  2:n_gnd_m2=  69.5174p
 + 2:n_gnd_m2=  77.7412p  2:n_gnd_m2= 801.5201p  2:n_gnd_m2= 311.5958p
 + 2:n_gnd_m2= 224.2803p  2:n_gnd_m2= 749.8300p  2:n_gnd_m3= 142.4117p
 + 2:n_gnd_m3= 167.7122p  2:n_gnd_m3= 168.2548p  2:n_gnd_m3=  69.5168p
 + 2:n_gnd_m3=  69.5172p  2:n_gnd_m3=  77.7411p  2:n_gnd_m3= 801.5203p
 + 2:n_gnd_m4= 311.5957p  2:n_gnd_m4=  45.8026p  2:n_gnd_m5=  45.8026p
 + 2:n_gnd_m7= 250.7098p  2:n_gnd_m8= 249.8497p  2:n_gnd_m9=  62.5965p
 + 2:n_s0_m13=   9.4439n  2:n_s0_m55=  10.0383n  2:n_s1_m27=   1.0000 
 + 2:n_s1_m69=   1.0000   2:n_s2_m41=   1.0000   2:n_s2_m83=   1.0000 
 + 2:n_vdd_m4=   1.0000   2:n_vdd_m4=   1.0000   2:n_vdd_m4=   1.0000 
 + 2:n_vdd_m4=   1.0000   2:n_vdd_m5=   1.0000   2:n_vdd_m5=   1.0000 
 + 2:n_vdd_m5=   1.0000   2:n_vdd_m5=   1.0000   2:n_vdd_m5=   1.0000 
 + 2:n_vdd_m5=   1.0000   2:n_vdd_m5=   1.0000   2:n_vdd_m5=   1.0000 
 + 2:n_vdd_m6=   1.0000   2:n_vdd_m6=   1.0000   2:n_vdd_m6=   1.0000 
 + 2:n_vdd_m6=   1.0000   2:n_vdd_m7=   1.0000   2:n_vdd_m7=   1.0000 
 + 2:n_vdd_m7=   1.0000   2:n_vdd_m7=   1.0000   2:n_vdd_m8=   1.0000 
 + 2:n_vdd_m8=   1.0000   2:n_vdd_m8=   1.0000   2:n_vdd_m8=   1.0000 
 + 2:n_x0_m11=   1.0000   2:n_x0_m1_=   1.0000   2:n_x0_m43=   1.0000 
 + 2:n_x0_m47=   1.0000   2:n_x0_m49=   1.0000   2:n_x0_m53=   1.0000 
 + 2:n_x0_m5_=   1.0000   2:n_x0_m7_=   1.0000   2:n_x1_m15=   1.0000 
 + 2:n_x1_m19=   1.0000   2:n_x1_m21=   1.0000   2:n_x1_m25=   1.0000 
 + 2:n_x1_m57=   1.0000   2:n_x1_m61=   1.0000   2:n_x1_m63=   1.0000 
 + 2:n_x1_m67=   1.0000   2:n_x2_m29=   1.0000   2:n_x2_m33=   1.0000 
 + 2:n_x2_m35=   1.0000   2:n_x2_m39=   1.0000   2:n_x2_m71=   1.0000 
 + 2:n_x2_m75=   1.0000   2:n_x2_m77=   1.0000   2:n_x2_m81=   1.0000 
 + 2:n_y0_m10=   1.0000   2:n_y0_m2_=   1.0000   2:n_y0_m44=   1.0000 
 + 2:n_y0_m46=   1.0000   2:n_y0_m4_=   1.0000   2:n_y0_m50=   1.0000 
 + 2:n_y0_m52=   1.0000   2:n_y0_m8_=   1.0000   2:n_y1_m16=   1.0000 
 + 2:n_y1_m18=   1.0000   2:n_y1_m22=   1.0000   2:n_y1_m24=   1.0000 
 + 2:n_y1_m58=   1.0000   2:n_y1_m60=   1.0000   2:n_y1_m64=   1.0000 
 + 2:n_y1_m66=   1.0000   2:n_y2_m30=   1.0000   2:n_y2_m32=   1.0000 
 + 2:n_y2_m36=   1.0000   2:n_y2_m38=   1.0000   2:n_y2_m72=   1.0000 
 + 2:n_y2_m74=   1.0000   2:n_y2_m78=   1.0000   2:n_y2_m80=   1.0000 
 + 3:n1      = 260.6817m  3:n10     =   2.8701n  3:n11     =  11.4804n
 + 3:n12     =   5.7402n  3:n2      = 565.2233m  3:n3      =  36.3220n
 + 3:n4      =   1.2092f  3:n5      =  18.1610n  3:n6      =   1.0000 
 + 3:n7      =   1.0000   3:n8      = 999.9999m  3:n9      = 999.9999m
 + 4:n1      = 975.4514m  4:n10     =   1.7313f  4:n11     =  52.0018n
 + 4:n12     =  26.0009n  4:n2      = 940.1824m  4:n3      =   5.5146n
 + 4:n4      =   1.8382n  4:n5      =   2.7573n  4:n6      = 271.4754m
 + 4:n7      = 738.7394m  4:n8      = 684.8337m  4:n9      =  78.0027n
 + 5:n1      = 975.4522m  5:n10     =   1.7313f  5:n11     =  52.0018n
 + 5:n12     =  26.0009n  5:n2      = 940.1825m  5:n3      =   5.5147n
 + 5:n4      =   1.8382n  5:n5      =   2.7573n  5:n6      = 271.4754m
 + 5:n7      = 738.7394m  5:n8      = 684.8337m  5:n9      =  78.0027n
 + 6:3       =   1.0000   6:6       =   1.0000   6:8       =   1.0000 
 + 6:12      =   1.0000   6:16      =   1.0000   6:18      =   1.0000 
 + 6:19      =   1.0000   6:22      =   1.0000   6:23      =   1.0000 
 + 6:24      =   1.0000   6:25      =   1.0000   6:26      =   1.0000 
 + 6:27      =   1.0000   6:28      =   1.0000   6:30      =   1.0000 
 + 6:32      =   1.0000   6:40      =   1.0000   6:41      =   1.0000 
 + 6:42      =   1.0000   6:43      =   1.0000   6:44      =   1.0000 
 + 6:50      =   1.0000   6:51      =   1.0000   6:52      =   1.0000 
 + 6:58      =   1.0000   6:59      =   1.0000   6:60      =   1.0000 
 + 7:3       =   1.0000   7:6       =   1.0000   7:8       =   1.0000 
 + 7:10      =   1.0000   7:14      =   1.0000   7:22      =   1.0000 
 + 7:24      =   1.0000   7:26      =   1.0000   7:28      =   1.0000 
 + 7:30      =   1.0000   7:38      =   1.0000   7:44      =   1.0000 
 + 7:46      =   1.0000   7:48      =   1.0000   7:50      =   1.0000 
 + 7:54      =   1.0000   7:60      =   1.0000   7:61      =   1.0000 
 + 7:62      =   1.0000   8:3       =   0.       8:6       =   0.     
 + 8:8       =   0.       8:10      =   0.       8:18      =   0.     
 + 8:20      =   0.       8:22      =   0.       8:28      =   0.     
 + 8:30      =   0.       8:32      =   0.       8:34      =   0.     
 + 8:36      =   0.       9:2       = 260.6872m  9:4       = 260.6872m
 + 9:6       = 260.6872m  9:7       = 260.6872m  9:8       = 260.6872m
 + 9:10      = 260.6872m  9:12      = 260.6872m  9:13      = 260.6872m
 + 9:14      = 260.6872m  9:16      = 260.6872m  9:18      = 260.6872m
 + 9:21      = 260.6872m  9:25      = 260.6872m  9:30      = 260.6872m
 +10:2       =  37.8033n 10:4       =  37.8033n 10:6       =  37.8029n
 +10:8       =  37.7854n 10:10      =  37.8164n 10:11      =  37.8040n
 +10:12      =  37.8174n 10:14      =  37.8221n 10:16      =  37.8168n
 +10:18      =  37.8168n 10:20      =  37.8172n 10:21      =  37.8168n
 +10:22      =  37.8173n 10:24      =  37.8176n 10:26      =  37.8172n
 +10:28      =  37.8172n 10:30      =  37.8033n 10:31      =  37.8168n
 +10:32      =  37.8172n 10:35      =  38.3150n 10:38      =  37.8432n
 +10:42      =  37.5262n 10:46      =  37.8168n 10:48      =  37.8033n
 +10:52      =  37.8033n 10:56      =  37.8033n 10:58      =  37.8033n
 +10:60      =  37.8172n 10:62      =  37.8172n 10:64      =  37.8172n
 +10:68      =  37.8172n 10:72      =  37.8033n 10:73      =  37.8172n
 +11:2       =  45.8039p 11:4       =  45.8039p 11:6       =  45.8039p
 +11:7       =  45.8039p 11:8       =  45.8039p 11:10      =  45.8039p
 +11:15      =  45.8039p 11:18      =  45.8039p 12:2       =   3.1415n
 +12:4       =   3.1424n 12:6       =   3.1402n 12:7       =   3.1413n
 +12:8       =   3.1400n 12:10      =   3.1393n 12:15      =   3.1828n
 +12:19      =   3.0989n 13:2       =   1.0000  13:4       =   1.0000 
 +13:6       =   1.0000  13:7       =   1.0000  13:8       =   1.0000 
 +13:10      =   1.0000  13:12      =   1.0000  13:13      =   1.0000 
 +13:14      =   1.0000  13:16      =   1.0000  13:20      =   1.0000 
 +13:21      =   1.0000  13:25      =   1.0000  13:28      =   1.0000 
 +13:33      =   1.0000  14:2       = 999.9999m 14:4       = 999.9999m
 +14:6       = 999.9999m 14:8       = 999.9999m 14:10      = 999.9999m
 +14:11      = 999.9999m 14:12      = 999.9999m 14:14      = 999.9999m
 +14:16      = 999.9999m 14:17      = 999.9999m 14:18      = 999.9999m
 +14:20      = 999.9999m 14:22      = 999.9999m 14:24      = 999.9999m
 +14:26      = 999.9999m 14:27      = 999.9999m 14:28      = 999.9999m
 +14:31      = 999.9999m 14:35      = 999.9999m 14:39      = 999.9999m
 +14:43      = 999.9999m 14:45      = 999.9999m 14:47      = 999.9999m
 +14:49      = 999.9999m 14:53      = 999.9999m 14:57      = 999.9999m
 +15:4       =   8.0921p 15:8       =   9.4758p 15:10      =  12.2277p
 +15:12      =  34.4227p 15:13      =  10.1888p 15:15      =  18.8816p
 +15:16      =  36.2411p 15:18      =  42.7239p 15:20      =  45.3391p
 +15:21      =  36.2130p 15:23      =  39.1198p 15:24      =  45.8025p
 +15:26      =  45.8025p 15:28      =  58.1810p 15:29      =  46.2660p
 +15:31      =  52.8668p 15:32      =  58.8993p 15:34      =  65.0138p
 +15:36      =  62.2774p 15:37      =  58.9605p 15:38      =  62.5965p
 +15:40      =  62.5965p 15:42      =  65.1758p 15:43      =  62.9156p
 +15:44      =  65.8357p 15:46      =  67.3313p 15:48      =  70.7713p
 +15:49      =  65.9845p 15:51      =  69.3179p 15:52      =  71.3947p
 +15:54      =  75.0968p 15:58      =   7.6306p 15:62      =   8.9506p
 +15:64      =  11.7025p 15:66      =  32.1156p 15:67      =   9.5999p
 +15:69      =  17.7283p 15:70      =  33.3031p 15:72      =  34.2945p
 +15:74      =  49.3839p 15:75      =  34.2082p 15:77      =  38.9619p
 +15:78      =  50.3230p 15:80      =  54.0552p 15:82      =  68.6402p
 +15:83      =  50.8458p 15:85      =  60.6039p 15:86      =  69.3365p
 +15:88      =  69.3423p 15:90      =  77.2667p 15:91      =  70.0322p
 +15:92      =  77.9624p 15:94      =  77.9566p 15:96      =  83.5893p
 +15:97      =  78.6587p 15:98      =  85.3590p 15:100     =  92.1331p
 +15:102     =  86.7861p 15:103     =  84.8132p 15:105     =  85.8608p
 +15:106     =  87.1828p 15:108     =  89.5389p 15:112     =   7.6307p
 +15:116     =   8.9507p 15:118     =  11.7026p 15:120     =  32.1155p
 +15:121     =   9.6000p 15:123     =  17.7255p 15:124     =  33.3030p
 +15:126     =  34.2945p 15:128     =  49.3837p 15:129     =  34.2082p
 +15:131     =  38.9594p 15:132     =  50.3229p 15:134     =  54.0549p
 +15:136     =  68.6400p 15:137     =  50.8457p 15:139     =  60.6037p
 +15:140     =  69.3364p 15:142     =  69.3421p 15:144     =  77.2665p
 +15:145     =  70.0321p 15:146     =  77.9622p 15:148     =  77.9565p
 +15:150     =  83.5892p 15:151     =  78.6586p 15:152     =  85.3589p
 +15:154     =  92.1330p 15:156     =  86.7860p 15:157     =  84.8131p
 +15:159     =  85.8607p 15:160     =  87.1827p 15:162     =  89.5388p
 +15:166     =   9.2083p 15:167     =  35.5995p 15:168     =  45.8025p
 +15:169     =  58.6414p 15:170     =  62.5965p 15:171     =  65.6952p
 +15:172     =  70.9993p 15:173     =   8.6831p 15:174     =  33.2050p
 +15:175     =  50.1605p 15:176     =  69.3363p 15:177     =  77.9626p
 +15:178     =  84.7223p 15:179     =  86.9312p 15:180     =   8.6832p
 +15:181     =  33.2049p 15:182     =  50.1604p 15:183     =  69.3361p
 +15:184     =  77.9625p 15:185     =  84.7222p 15:186     =  86.9311p
 +15:243     =  44.0321p 15:252     =  47.7316p 15:255     =  51.9937p
 +15:264     =  52.1804p 15:267     =  43.7688p 15:276     =  47.6838p
 +15:279     =  54.8874p 15:288     =  52.8370p 15:291     =  43.7682p
 +15:300     =  47.6830p 15:303     =  54.8874p 15:312     =  52.8370p
 +15:316     = 176.0518p 15:320     = 561.1304p 15:325     =  45.8026p
 +15:329     = 228.8379p 15:332     =  62.5965p 15:336     = 149.2432p
 +15:340     = 332.5240p 15:344     = 175.5264p 15:348     = 113.5776p
 +15:353     = 158.5641p 15:357     =  69.4969p 15:360     =  77.8021p
 +15:364     = 463.1564p 15:368     = 253.3632p 15:372     = 175.5265p
 +15:376     = 113.5754p 15:381     = 158.5610p 15:385     =  69.4968p
 +15:388     =  77.8020p 15:392     = 463.1565p 15:396     = 253.3630p
 +16:4       =   1.0000  16:8       =   1.0000  16:10      =   1.0000 
 +16:12      =   1.0000  16:13      =   1.0000  16:15      =   1.0000 
 +16:16      =   1.0000  16:18      =   1.0000  16:20      =   1.0000 
 +16:21      =   1.0000  16:23      =   1.0000  16:25      =   1.0000 
 +16:26      =   1.0000  16:28      =   1.0000  16:30      =   1.0000 
 +16:31      =   1.0000  16:33      =   1.0000  16:34      =   1.0000 
 +16:36      =   1.0000  16:38      =   1.0000  16:39      =   1.0000 
 +16:40      =   1.0000  16:42      =   1.0000  16:44      =   1.0000 
 +16:45      =   1.0000  16:46      =   1.0000  16:48      =   1.0000 
 +16:52      =   1.0000  16:56      =   1.0000  16:58      =   1.0000 
 +16:60      =   1.0000  16:61      =   1.0000  16:63      =   1.0000 
 +16:64      =   1.0000  16:66      =   1.0000  16:68      =   1.0000 
 +16:69      =   1.0000  16:71      =   1.0000  16:73      =   1.0000 
 +16:74      =   1.0000  16:76      =   1.0000  16:78      =   1.0000 
 +16:79      =   1.0000  16:81      =   1.0000  16:82      =   1.0000 
 +16:84      =   1.0000  16:86      =   1.0000  16:87      =   1.0000 
 +16:88      =   1.0000  16:90      =   1.0000  16:92      =   1.0000 
 +16:93      =   1.0000  16:94      =   1.0000  16:96      =   1.0000 
 +16:100     =   1.0000  16:104     =   1.0000  16:106     =   1.0000 
 +16:108     =   1.0000  16:109     =   1.0000  16:111     =   1.0000 
 +16:112     =   1.0000  16:114     =   1.0000  16:116     =   1.0000 
 +16:117     =   1.0000  16:119     =   1.0000  16:121     =   1.0000 
 +16:122     =   1.0000  16:124     =   1.0000  16:126     =   1.0000 
 +16:127     =   1.0000  16:129     =   1.0000  16:130     =   1.0000 
 +16:132     =   1.0000  16:134     =   1.0000  16:135     =   1.0000 
 +16:136     =   1.0000  16:138     =   1.0000  16:140     =   1.0000 
 +16:141     =   1.0000  16:142     =   1.0000  16:144     =   1.0000 
 +16:148     =   1.0000  16:149     =   1.0000  16:150     =   1.0000 
 +16:151     =   1.0000  16:152     =   1.0000  16:153     =   1.0000 
 +16:154     =   1.0000  16:155     =   1.0000  16:156     =   1.0000 
 +16:157     =   1.0000  16:158     =   1.0000  16:159     =   1.0000 
 +16:160     =   1.0000  16:161     =   1.0000  16:162     =   1.0000 
 +16:163     =   1.0000  16:164     =   1.0000  16:165     =   1.0000 
 +16:225     =   1.0000  16:230     =   1.0000  16:234     =   1.0000 
 +16:237     =   1.0000  16:241     =   1.0000  16:245     =   1.0000 
 +16:250     =   1.0000  16:254     =   1.0000  16:257     =   1.0000 
 +16:261     =   1.0000  16:265     =   1.0000  16:270     =   1.0000 
 +16:274     =   1.0000  16:277     =   1.0000  16:281     =   1.0000 
 +16:284     =   1.0000  16:290     =   1.0000  16:295     =   1.0000 
 +16:301     =   1.0000  16:304     =   1.0000  16:310     =   1.0000 
 +16:316     =   1.0000  16:321     =   1.0000  16:327     =   1.0000 
 +16:330     =   1.0000  16:336     =   1.0000  16:342     =   1.0000 
 +16:347     =   1.0000  16:353     =   1.0000  16:356     =   1.0000 
 +17:3       =   9.8277n 17:6       =   9.8361n 17:8       =   9.8431n
 +17:12      =   9.9718n 17:16      =   9.5702n 17:18      =   9.8361n
 +17:20      =   9.8361n 17:22      =   9.8361n 18:3       =   1.0000 
 +18:6       =   1.0000  18:8       =   1.0000  18:12      =   1.0000 
 +18:16      =   1.0000  18:20      =   1.0000  18:21      =   1.0000 
 +18:22      =   1.0000  18:23      =   1.0000  18:24      =   1.0000 
 +18:25      =   1.0000  18:26      =   1.0000  18:27      =   1.0000 
 +18:28      =   1.0000  18:30      =   1.0000  18:34      =   1.0000 
 +18:35      =   1.0000  18:36      =   1.0000  18:37      =   1.0000 
 +18:38      =   1.0000  18:46      =   1.0000  18:47      =   1.0000 
 +18:48      =   1.0000  18:49      =   1.0000  18:50      =   1.0000 
 +18:56      =   1.0000  18:57      =   1.0000  18:58      =   1.0000 
 +18:64      =   1.0000  18:65      =   1.0000  18:66      =   1.0000 
 +18:67      =   1.0000  19:3       =   1.0000  19:6       =   1.0000 
 +19:8       =   1.0000  19:10      =   1.0000  19:12      =   1.0000 
 +19:20      =   1.0000  19:22      =   1.0000  19:24      =   1.0000 
 +19:26      =   1.0000  19:28      =   1.0000  19:34      =   1.0000 
 +19:40      =   1.0000  19:42      =   1.0000  19:44      =   1.0000 
 +19:46      =   1.0000  19:48      =   1.0000  20:3       =   1.0000 
 +20:6       =   1.0000  20:8       =   1.0000  20:10      =   1.0000 
 +20:14      =   1.0000  20:22      =   1.0000  20:24      =   1.0000 
 +20:26      =   1.0000  20:28      =   1.0000  20:30      =   1.0000 
 +20:38      =   1.0000  20:44      =   1.0000  20:46      =   1.0000 
 +20:48      =   1.0000  20:50      =   1.0000  20:54      =   1.0000 
 +20:60      =   1.0000  20:61      =   1.0000  20:62      =   1.0000 
 +21:2       = 975.4895m 21:4       = 975.4895m 21:6       = 975.4895m
 +21:7       = 975.4895m 21:8       = 975.4895m 21:10      = 975.4895m
 +21:12      = 975.4895m 21:13      = 975.4895m 21:14      = 975.4895m
 +21:16      = 975.4895m 21:18      = 975.4895m 21:21      = 975.4895m
 +21:25      = 975.4895m 21:30      = 975.4895m 22:2       =   5.8092n
 +22:4       =   5.8092n 22:6       =   5.8092n 22:8       =   5.8065n
 +22:10      =   5.8112n 22:11      =   5.8094n 22:12      =   5.8115n
 +22:14      =   5.8127n 22:16      =   5.8112n 22:18      =   5.8091n
 +22:20      =   5.8123n 22:21      =   5.8114n 22:22      =   5.8124n
 +22:24      =   5.8132n 22:26      =   5.8124n 22:28      =   5.8124n
 +22:30      =   5.8092n 22:31      =   5.8113n 22:32      =   5.8124n
 +22:35      =   5.9384n 22:38      =   5.8712n 22:42      =   5.7669n
 +22:46      =   5.7569n 22:48      =   5.8092n 22:52      =   5.8092n
 +22:56      =   5.8092n 22:58      =   5.8092n 22:60      =   5.8124n
 +22:62      =   5.8124n 22:64      =   5.8124n 22:68      =   5.8124n
 +22:72      =   5.8092n 22:73      =   5.8124n 23:2       =   2.0144n
 +23:4       =   2.0149n 23:6       =   2.0135n 23:7       =   2.0143n
 +23:8       =   2.0134n 23:10      =   2.0129n 23:15      =   2.0406n
 +23:18      =   1.9872n 24:2       =  72.2455p 24:4       =  72.2447p
 +24:6       =  72.2468p 24:7       =  72.2457p 24:8       =  72.2469p
 +24:10      =  72.2476p 24:15      =  72.2067p 24:19      =  72.2856p
 +25:2       = 271.4748m 25:4       = 271.4748m 25:6       = 271.4748m
 +25:7       = 271.4748m 25:8       = 271.4748m 25:10      = 271.4748m
 +25:12      = 271.4748m 25:13      = 271.4748m 25:14      = 271.4748m
 +25:16      = 271.4748m 25:20      = 271.4748m 25:21      = 271.4748m
 +25:25      = 271.4748m 25:28      = 271.4748m 25:33      = 271.4748m
 +26:2       =  79.9369n 26:4       =  79.9369n 26:6       =  79.9394n
 +26:8       =  79.9560n 26:10      =  79.9200n 26:11      =  79.9365n
 +26:12      =  79.9187n 26:14      =  79.9190n 26:16      =  79.8981n
 +26:17      =  79.9173n 26:18      =  79.8964n 26:20      =  79.8783n
 +26:22      =  79.8967n 26:24      =  79.8967n 26:26      =  79.9369n
 +26:27      =  79.9187n 26:28      =  79.8967n 26:31      =  80.6706n
 +26:35      =  79.9327n 26:39      =  79.9369n 26:43      =  79.5073n
 +26:45      =  79.8967n 26:47      =  79.8967n 26:49      =  79.8967n
 +26:53      =  79.8967n 26:57      =  79.8967n 27:3       =   1.0000 
 +27:6       =   1.0000  27:8       =   1.0000  27:12      =   1.0000 
 +27:16      =   1.0000  27:18      =   1.0000  27:20      =   1.0000 
 +27:22      =   1.0000  28:3       =   1.0000  28:6       =   1.0000 
 +28:8       =   1.0000  28:12      =   1.0000  28:16      =   1.0000 
 +28:18      =   1.0000  28:22      =   1.0000  28:24      =   1.0000 
 +29:3       =   1.0000  29:6       =   1.0000  29:8       =   1.0000 
 +29:10      =   1.0000  29:12      =   1.0000  29:20      =   1.0000 
 +29:22      =   1.0000  29:24      =   1.0000  29:26      =   1.0000 
 +29:28      =   1.0000  29:34      =   1.0000  29:40      =   1.0000 
 +29:42      =   1.0000  29:44      =   1.0000  29:46      =   1.0000 
 +29:48      =   1.0000  30:3       =   1.0000  30:6       =   1.0000 
 +30:8       =   1.0000  30:10      =   1.0000  30:14      =   1.0000 
 +30:22      =   1.0000  30:24      =   1.0000  30:26      =   1.0000 
 +30:28      =   1.0000  30:30      =   1.0000  30:38      =   1.0000 
 +30:44      =   1.0000  30:46      =   1.0000  30:48      =   1.0000 
 +30:50      =   1.0000  30:54      =   1.0000  30:60      =   1.0000 
 +30:61      =   1.0000  30:62      =   1.0000  31:2       = 975.4879m
 +31:4       = 975.4879m 31:6       = 975.4879m 31:7       = 975.4879m
 +31:8       = 975.4879m 31:10      = 975.4879m 31:12      = 975.4879m
 +31:13      = 975.4879m 31:14      = 975.4879m 31:16      = 975.4879m
 +31:18      = 975.4879m 31:21      = 975.4879m 31:25      = 975.4879m
 +31:30      = 975.4879m 32:2       =   5.8091n 32:4       =   5.8091n
 +32:6       =   5.8090n 32:8       =   5.8064n 32:10      =   5.8111n
 +32:11      =   5.8092n 32:12      =   5.8113n 32:14      =   5.8125n
 +32:16      =   5.8110n 32:18      =   5.8090n 32:20      =   5.8121n
 +32:21      =   5.8112n 32:22      =   5.8123n 32:24      =   5.8130n
 +32:26      =   5.8122n 32:28      =   5.8122n 32:30      =   5.8091n
 +32:31      =   5.8112n 32:32      =   5.8122n 32:35      =   5.9383n
 +32:38      =   5.8711n 32:42      =   5.7667n 32:46      =   5.7567n
 +32:48      =   5.8091n 32:52      =   5.8091n 32:56      =   5.8091n
 +32:58      =   5.8091n 32:60      =   5.8122n 32:62      =   5.8122n
 +32:64      =   5.8122n 32:68      =   5.8122n 32:72      =   5.8091n
 +32:73      =   5.8122n 33:2       =   2.0143n 33:4       =   2.0149n
 +33:6       =   2.0135n 33:7       =   2.0142n 33:8       =   2.0134n
 +33:10      =   2.0128n 33:15      =   2.0405n 33:18      =   1.9871n
 +34:2       =  72.2454p 34:4       =  72.2446p 34:6       =  72.2466p
 +34:7       =  72.2456p 34:8       =  72.2468p 34:10      =  72.2475p
 +34:15      =  72.2065p 34:19      =  72.2855p 35:2       = 271.4748m
 +35:4       = 271.4748m 35:6       = 271.4748m 35:7       = 271.4748m
 +35:8       = 271.4748m 35:10      = 271.4748m 35:12      = 271.4748m
 +35:13      = 271.4748m 35:14      = 271.4748m 35:16      = 271.4748m
 +35:20      = 271.4748m 35:21      = 271.4748m 35:25      = 271.4748m
 +35:28      = 271.4748m 35:33      = 271.4748m 36:2       =  79.9370n
 +36:4       =  79.9370n 36:6       =  79.9395n 36:8       =  79.9561n
 +36:10      =  79.9200n 36:11      =  79.9366n 36:12      =  79.9187n
 +36:14      =  79.9190n 36:16      =  79.8981n 36:17      =  79.9174n
 +36:18      =  79.8964n 36:20      =  79.8784n 36:22      =  79.8968n
 +36:24      =  79.8968n 36:26      =  79.9370n 36:27      =  79.9187n
 +36:28      =  79.8968n 36:31      =  80.6706n 36:35      =  79.9328n
 +36:39      =  79.9370n 36:43      =  79.5074n 36:45      =  79.8968n
 +36:47      =  79.8968n 36:49      =  79.8968n 36:53      =  79.8968n
 +36:57      =  79.8968n 37:3       =   1.0000  37:6       =   1.0000 
 +37:8       =   1.0000  37:12      =   1.0000  37:16      =   1.0000 
 +37:18      =   1.0000  37:20      =   1.0000  37:22      =   1.0000 
 +38:1       =   1.0000  38:9       =   1.0000  38:10      =   1.0000 
 +38:11      =   1.0000  38:17      =   1.0000  38:18      =   1.0000 
 +38:19      =   1.0000  38:25      =   1.0000  38:26      =   1.0000 
 +38:27      =   1.0000  38:33      =   1.0000  38:34      =   1.0000 

 ******
 .protect

 ****** transient analysis tnom=  25.000 temp=  25.000 ******
 pwr=  54.4991u  from=   0.             to=  47.0000n
 tdelay=   2.8548n  targ=   8.8548n   trig=   6.0000n
 tdelay1= 850.0493p  targ=  13.8500n   trig=  13.0000n
 tdelay2=   1.8199n  targ=  21.8199n   trig=  20.0000n
 tdelay3=   2.7465n  targ=  29.7465n   trig=  27.0000n
 tdelay4=   2.8259n  targ=  36.8259n   trig=  34.0000n
 tdelay5=   4.2272n  targ=  45.2272n   trig=  41.0000n

          ***** job concluded
 ******  
 .protect

 ****** job statistics summary tnom=  25.000 temp=  25.000 ******
  
 ******  Machine Information  ******
 CPU:
 model name	: Intel(R) Xeon(R) CPU           E5620  @ 2.40GHz
 cpu MHz	: 2394.000
  
 OS:
 Linux version 2.6.32-696.30.1.el6.x86_64 (mockbuild@c1bl.rdu2.centos.org) (gcc version 4.4.7 20120313 (Red Hat 4.4.7-18) (GCC) ) #1 SMP Tue May 22 03:28:18 UTC 2018


  ******  HSPICE Threads Information  ******

  Command Line Threads Count :     1
  Available CPU Count        :    16
  Actual Threads Count       :     1


  ****** Statistics of Ignored Elements ******
  Voltage Sources :       1

  ******  Circuit Statistics  ******
  # nodes       =    1441 # elements   =    1624
  # resistors   =    1035 # capacitors =     413 # inductors   =       0
  # mutual_inds =       0 # vccs       =       0 # vcvs        =       0
  # cccs        =       0 # ccvs       =       0 # volt_srcs   =       8
  # curr_srcs   =       0 # diodes     =       0 # bjts        =       0
  # jfets       =       0 # mosfets    =     168 # U elements  =       0
  # T elements  =       0 # W elements =       0 # B elements  =       0
  # S elements  =       0 # P elements =       0 # va device   =       0
  # vector_srcs =       0 # N elements =       0


  ******  Runtime Statistics (seconds)  ******

  analysis           time    # points   tot. iter  conv.iter
  op point           0.05           1          47
  transient          0.61        4701        1029         347 rev=         8
  readin             0.04
  errchk             0.02
  setup              0.09
  output             0.00


           peak memory used        366.38 megabytes
           total cpu time            0.82 seconds
           total elapsed time        1.02 seconds
           job started at     14:56:04 12/19/2023
           job ended   at     14:56:05 12/19/2023
           job total runtime         1.02 seconds


 lic: Release hspice token(s) 
 lic: total license checkout elapse time:        0.20(s)
