 ****** HSPICE -- Q-2020.03 linux64 (Mar  8 2020) ******
  Copyright (c) 1986 - 2023 by Synopsys, Inc. All Rights Reserved.
  This software and the associated documentation are proprietary
  to Synopsys, Inc. This software may only be used in accordance
  with the terms and conditions of a written license agreement with
  Synopsys, Inc. All other use, reproduction, or distribution of
  this software is strictly prohibited.
  Input File: HW3adder.sp
  Command line options: /usr/cad/synopsys/hspice/cur/hspice/linux64/hspice -i HW3adder.sp
  Start time: Mon Nov 27 01:17:19 2023
 lic:
 lic: FLEXlm: SDK_12.6
 lic: USER:   110501539            HOSTNAME: ares-athena
 lic: HOSTID: "e61f13c2e205"       PID:      19096
 lic: Using FLEXlm license file:
 lic: 26585@lshc
 lic: Checkout 1 hspice
 lic: License/Maintenance for hspice will expire on 31-mar-2024/2023.03
 lic: 129(in_use)/900(total) FLOATING license(s) on SERVER 26585@lshc
 lic:
  **info** (HW3adder.sp:51) DC voltage reset to initial transient source value in source 0:vx0. new dc=0.0000D+00
 ***************************************************************************
 ***        model parameters  model name:   0:p_18.1   model type:pmos   ***
 ***************************************************************************

   *** general parameters ***
    deriv=   0.

   ***  level 49  model parameters  ***

      hspver=    2006.03               level=         49
     version=        3.2            paramchk=          0
      apwarn=          1                lite=          0
      vgslim=          0             binUnit=          1
      capMod=          2               xpart=          1
      mobMod=          3              nqsMod=          0
      stiMod=          0                 elm=          5
    sfvtflag=          0                 tox=    4.2e-09 meter
          xj=      1e-07 meter       binflag=          0
        lmin=    1.8e-07 meter          lmax=      5e-05 meter
        wmin=    2.5e-07 meter          wmax=     0.0001 meter
        lref=          0 meter          wref=          0 meter
        lint= -1.041e-08 meter          wint= -1.525e-07 meter
       lmult=          1               wmult=          1
          ll=  6.635e-15                 lln=          1
          lw= -2.873e-16                 lwn=          1
         lwl=          0                  wl=          0
         wln=          1                  ww=  1.236e-14
         wwn=          1                 wwl=          0
         dwg= -1.251e-07 m/V             dwb= -1.039e-07 m/V^1/2
          xl=     -2e-09                  xw=          0
          a0=       1.35                 ags=     0.3818 V^-1
          b0= -3.088e-07 meter            b1=          0 meter
        keta=    0.01044 V^-1           voff=    -0.1073 V
       ngate=      1e+23 cm^-3           vbx=          0 V
         vbm=         -3 V                xt=   1.55e-07 meter
        vth0=    -0.4555 V               nch=  6.231e+17 cm^-3
        nsub=      6e+16 cm^-3           nlx=   2.53e-07 meter
      gamma1=          0 V^-1/2       gamma2=          0 V^-1/2
          k1=     0.5704 V^1/2            k2=   0.006973
          k3=     -2.833                 k3b=      1.326 V^-1
          w0= -1.943e-07 meter          dvt0=     0.4885
        dvt1=    0.07578                dvt2=     0.1187 V^-1
       dvt0w=    -0.1261 meter^-1      dvt1w=      24790 meter^-1
       dvt2w=     0.6915 V^-1           dsub=     1.9191
        eta0=      1.071                etab=    -0.9291 V^-1
          u0=      124.5 cm^2/V/sec         ua=   1.54e-09 m/V
          ub=  2.646e-19 (m/V)^2          uc=   -0.09587 V^-1
        vsat=      53400 m/sec            a1=          0 v^-1
          a2=          1               delta=       0.01 V
        rdsw=      792.1 ohm-um         prwg=          0 V^-1
        prwb=          0 V^-1/2           wr=          1
        pclm=      2.653             pdiblc1=          0
     pdiblc2=      5e-06             pdiblcb=          0 V^-1
      pscbe1=  4.866e+08 V/m          pscbe2=    2.8e-07 V/m
       drout=      1.457                pvag=      1.262
     nfactor=      1.535                cdsc=  0.0007578 f/m^2
       cdscb=     0.0001 f/V/m^2       cdscd= -2.883e-05 f/V/m^2
         cit=  -0.001067 f/m^2        alpha0=          0 m/V
       beta0=         30 V               dlc=   7.01e-08 meter
         dwc=          0 meter           clc=      1e-07 meter
         cle=        0.6                cgso=  2.054e-10 f/m
        cgdo=  2.054e-10 f/m            cgbo=          0 f/m
        cgsl=          0 f/m            cgdl=          0 f/m
      ckappa=        0.6                  cf=  1.533e-10 f/m
        acde=          1 m/V            moin=         15 V^1/2
        toxm=    4.2e-09 m            dtoxcv=          0 m
         vfb (not used)                alpha1=          0 1/V
        ijth=          0 A              noff=          1
      voffcv=          0                 tcj=          0 1/K
       tcjsw=          0 1/K          tcjswg=          0 1/K
         tpb=          0 V/K           tpbsw=          0 V/K
      tpbswg=          0 V/K             llc=  -1.31e-14
         lwc=          0                lwlc=          0
         wlc=          0                 wwc=          0
        wwlc=          0                tnom=     298.15 K
         kt1=    -0.2294 V              kt1l= -8.204e-09
         kt2=  -0.009487                 ute=    -0.4484
         ua1=  4.571e-09 m/V             ub1= -6.026e-18 (m/V)^2
         uc1=    -0.0985 m/V^2            at=      12030 m/s
         prt=          0
         using Berkeley noise model       noiMod=          1
        noia=      1e+20                noib=      50000
        noic=   -1.4e-12                  em=    4.2e+07
          ef=          1                  af=          1
          kf=          0              gdsnoi=-1.23457e-29
         using Hspice diodes            using ACM
         acm=         3                 hdif=   2.6e-07 meter
        ldif=     8e-08 meter             js=     3e-06 amp/m^2
         jsw=  4.22e-11 amp/m            xti=         3
           n=         1                   cj=   0.00124 f/m^2
          mj=     0.395                   pb=     0.762 V
        cjsw=  1.74e-10 f/m             mjsw=     0.324
         php=     0.665 V               pbsw (not used)
      cjgate=  1.74e-10 f/m            cjswg (not used)
       mjswg (not used)                 pbswg (not used)
         la0=     -0.281                lags=    0.04454
       lketa=     -0.012               lvoff= -0.0009871
       lvth0=     0.0044                lnlx= -1.584e-08
         lua= -8.253e-11            lpdiblc2=   0.003012
         wa0=   -0.04807                wags=   -0.04277
       wvoff=  -0.009816               wvth0=    -0.0148
         wua=   2.63e-09               wvsat=     -14200
       wrdsw=      10.07                wute=    -0.2682
         wat=      -6405                wprt=      226.6
         pa0=    0.08661                pags=   -0.04076
       pvoff= -9.833e-05               pvth0=     0.0032
         pua=  5.855e-11               pvsat=       -434
 ***************************************************************************
 ***        model parameters  model name:   0:n_18.1   model type:nmos   ***
 ***************************************************************************

   *** general parameters ***
    deriv=   0.

   ***  level 49  model parameters  ***

      hspver=    2006.03               level=         49
     version=        3.2            paramchk=          0
      apwarn=          1                lite=          0
      vgslim=          0             binUnit=          1
      capMod=          2               xpart=          1
      mobMod=          1              nqsMod=          0
      stiMod=          0                 elm=          5
    sfvtflag=          0                 tox=    4.2e-09 meter
          xj=    1.6e-07 meter       binflag=          0
        lmin=    1.8e-07 meter          lmax=      5e-05 meter
        wmin=    2.5e-07 meter          wmax=     0.0001 meter
        lref=          0 meter          wref=          0 meter
        lint=  1.587e-08 meter          wint=  1.022e-08 meter
       lmult=          1               wmult=          1
          ll= -1.062e-15                 lln=          1
          lw=  2.996e-15                 lwn=          1
         lwl=          0                  wl=          0
         wln=          1                  ww=  7.262e-16
         wwn=          1                 wwl=          0
         dwg= -3.396e-09 m/V             dwb=  1.346e-09 m/V^1/2
          xl=  -1.05e-08                  xw=          0
          a0=       1.93                 ags=     0.5072 V^-1
          b0=  1.486e-06 meter            b1=  9.064e-06 meter
        keta=    0.01752 V^-1           voff=    -0.1088 V
       ngate=      1e+23 cm^-3           vbx=          0 V
         vbm=         -3 V                xt=   1.55e-07 meter
        vth0=     0.3075 V               nch= 3.7446e+17 cm^-3
        nsub=      6e+16 cm^-3           nlx=  4.279e-07 meter
      gamma1=          0 V^-1/2       gamma2=          0 V^-1/2
          k1=     0.4578 V^1/2            k2=   -0.02638
          k3=     -10.88                 k3b=     0.2379 V^-1
          w0= -8.813e-08 meter          dvt0=     0.4042
        dvt1=     0.3237                dvt2=    -0.8602 V^-1
       dvt0w=      0.383 meter^-1      dvt1w=     600000 meter^-1
       dvt2w=     -0.025 V^-1           dsub=   0.001592
        eta0=   0.001004                etab=  -0.001459 V^-1
          u0=      324.1 cm^2/V/sec         ua= -9.201e-10 m/V
          ub=  1.907e-18 (m/V)^2          uc=  4.355e-11 V^-1
        vsat=      72580 m/sec            a1=          0 v^-1
          a2=          1               delta=       0.01 V
        rdsw=      4.905 ohm-um         prwg=          0 V^-1
        prwb=          0 V^-1/2           wr=          1
        pclm=      1.091             pdiblc1=   0.003061
     pdiblc2=      1e-06             pdiblcb=          0 V^-1
      pscbe1=  4.866e+08 V/m          pscbe2=    2.8e-07 V/m
       drout=   0.001592                pvag=    -0.2958
     nfactor=      1.038                cdsc=   0.002275 f/m^2
       cdscb=  0.0008241 f/V/m^2       cdscd=    -0.0005 f/V/m^2
         cit=  -0.001511 f/m^2        alpha0=          0 m/V
       beta0=         30 V               dlc=      4e-08 meter
         dwc=          0 meter           clc=      1e-07 meter
         cle=        0.6                cgso=   2.35e-10 f/m
        cgdo=   2.35e-10 f/m            cgbo=          0 f/m
        cgsl=          0 f/m            cgdl=          0 f/m
      ckappa=        0.6                  cf=  1.533e-10 f/m
        acde=          1 m/V            moin=         15 V^1/2
        toxm=    4.2e-09 m            dtoxcv=          0 m
         vfb (not used)                alpha1=          0 1/V
        ijth=          0 A              noff=          1
      voffcv=          0                 tcj=          0 1/K
       tcjsw=          0 1/K          tcjswg=          0 1/K
         tpb=          0 V/K           tpbsw=          0 V/K
      tpbswg=          0 V/K             llc=  -6.64e-15
         lwc=          0                lwlc=          0
         wlc=          0                 wwc=          0
        wwlc=          0                tnom=     298.15 K
         kt1=    -0.2255 V              kt1l= -4.275e-09
         kt2=   -0.02527                 ute=     -1.186
         ua1=  2.253e-09 m/V             ub1= -2.673e-18 (m/V)^2
         uc1= -3.832e-11 m/V^2            at=      14490 m/s
         prt=     -10.18
         using Berkeley noise model       noiMod=          1
        noia=      1e+20                noib=      50000
        noic=   -1.4e-12                  em=    4.2e+07
          ef=          1                  af=          1
          kf=          0              gdsnoi=-1.23457e-29
         using Hspice diodes            using ACM
         acm=         3                 hdif=   2.6e-07 meter
        ldif=     8e-08 meter             js=     1e-06 amp/m^2
         jsw=     7e-11 amp/m            xti=         3
           n=         1                   cj=   0.00103 f/m^2
          mj=     0.443                   pb=     0.823 V
        cjsw=  1.34e-10 f/m             mjsw=      0.33
         php=      0.88 V               pbsw (not used)
      cjgate=     5e-10 f/m            cjswg (not used)
       mjswg (not used)                 pbswg (not used)
         la0=    -0.4667                lags=     0.3028
       lketa=   -0.01942               lvoff=  -0.004208
       lvth0=     -0.001                lnlx= -2.854e-08
       leta0=   0.001574            lpdiblc2=  -0.004752
         wa0=   -0.04731                wags=   0.004242
       wvoff= -0.0004078               wvth0=    0.06027
         wu0=       0.54                 wua=  -1.88e-11
       wvsat=       5066                wute=    0.06373
         wat=       7067                 pa0=   -0.02649
       pvoff= -0.0003788                 pw0=    1.3e-09
         pub=    3.8e-20




 **info** set option symb=1 internally to help for convergence.
 *****************************************************************
 ******  option summary
 ******
 runlvl  = 3         bypass  = 2.0000
 **info** dc convergence successful at Newton-Raphson method
1****** HSPICE -- Q-2020.03 linux64 (Mar  8 2020) ******
 ******
 **full adder

 ****** operating point information tnom=  25.000 temp=  25.000 ******
 ****** operating point status is voltage   simulation time is     0.
    node    =voltage      node    =voltage      node    =voltage

 +0:ain     =   0.      0:bin     =   0.      0:cin     =   0.
 +0:cou     =   9.0198n 0:n1      =   1.0000  0:n10     = 930.8027m
 +0:n11     = 105.7840m 0:n12     =  22.4816m 0:n2      =   1.0000
 +0:n3      =   1.0000  0:n4      =  31.1079m 0:n5      =  53.5515m
 +0:n6      =   1.0000  0:n7      = 999.9999m 0:n8      = 999.9999m
 +0:n9      = 999.9998m 0:sum     =   9.0199n 0:vdd     =   1.0000

 ******
 **full adder

 ****** transient analysis tnom=  25.000 temp=  25.000 ******
x

 time         voltage
             ain
    0.          0.
  100.00000p    0.
  200.00000p    0.
  300.00000p    0.
  400.00000p    0.
  500.00000p    0.
  600.00000p    0.
  700.00000p    0.
  800.00000p    0.
  900.00000p    0.
    1.00000n    0.
    1.10000n    0.
    1.20000n    0.
    1.30000n    0.
    1.40000n    0.
    1.50000n    0.
    1.60000n    0.
    1.70000n    0.
    1.80000n    0.
    1.90000n    0.
    2.00000n    0.
    2.10000n    0.
    2.20000n    0.
    2.30000n    0.
    2.40000n    0.
    2.50000n    0.
    2.60000n    0.
    2.70000n    0.
    2.80000n    0.
    2.90000n    0.
    3.00000n    0.
    3.10000n    0.
    3.20000n    0.
    3.30000n    0.
    3.40000n    0.
    3.50000n    0.
    3.60000n    0.
    3.70000n    0.
    3.80000n    0.
    3.90000n    0.
    4.00000n    0.
    4.10000n    0.
    4.20000n    0.
    4.30000n    0.
    4.40000n    0.
    4.50000n    0.
    4.60000n    0.
    4.70000n    0.
    4.80000n    0.
    4.90000n    0.
    5.00000n    0.
    5.10000n   50.0000m
    5.20000n  100.0000m
    5.30000n  150.0000m
    5.40000n  200.0000m
    5.50000n  250.0000m
    5.60000n  300.0000m
    5.70000n  350.0000m
    5.80000n  400.0000m
    5.90000n  450.0000m
    6.00000n  500.0000m
    6.10000n  550.0000m
    6.20000n  600.0000m
    6.30000n  650.0000m
    6.40000n  700.0000m
    6.50000n  750.0000m
    6.60000n  800.0000m
    6.70000n  850.0000m
    6.80000n  900.0000m
    6.90000n  950.0000m
    7.00000n    1.0000
    7.10000n    1.0000
    7.20000n    1.0000
    7.30000n    1.0000
    7.40000n    1.0000
    7.50000n    1.0000
    7.60000n    1.0000
    7.70000n    1.0000
    7.80000n    1.0000
    7.90000n    1.0000
    8.00000n    1.0000
    8.10000n    1.0000
    8.20000n    1.0000
    8.30000n    1.0000
    8.40000n    1.0000
    8.50000n    1.0000
    8.60000n    1.0000
    8.70000n    1.0000
    8.80000n    1.0000
    8.90000n    1.0000
    9.00000n    1.0000
    9.10000n    1.0000
    9.20000n    1.0000
    9.30000n    1.0000
    9.40000n    1.0000
    9.50000n    1.0000
    9.60000n    1.0000
    9.70000n    1.0000
    9.80000n    1.0000
    9.90000n    1.0000
   10.00000n    1.0000
   10.10000n    1.0000
   10.20000n    1.0000
   10.30000n    1.0000
   10.40000n    1.0000
   10.50000n    1.0000
   10.60000n    1.0000
   10.70000n    1.0000
   10.80000n    1.0000
   10.90000n    1.0000
   11.00000n    1.0000
   11.10000n    1.0000
   11.20000n    1.0000
   11.30000n    1.0000
   11.40000n    1.0000
   11.50000n    1.0000
   11.60000n    1.0000
   11.70000n    1.0000
   11.80000n    1.0000
   11.90000n    1.0000
   12.00000n    1.0000
   12.10000n  950.0000m
   12.20000n  900.0000m
   12.30000n  850.0000m
   12.40000n  800.0000m
   12.50000n  750.0000m
   12.60000n  700.0000m
   12.70000n  650.0000m
   12.80000n  600.0000m
   12.90000n  550.0000m
   13.00000n  500.0000m
   13.10000n  450.0000m
   13.20000n  400.0000m
   13.30000n  350.0000m
   13.40000n  300.0000m
   13.50000n  250.0000m
   13.60000n  200.0000m
   13.70000n  150.0000m
   13.80000n  100.0000m
   13.90000n   50.0000m
   14.00000n    0.
   14.10000n    0.
   14.20000n    0.
   14.30000n    0.
   14.40000n    0.
   14.50000n    0.
   14.60000n    0.
   14.70000n    0.
   14.80000n    0.
   14.90000n    0.
   15.00000n    0.
   15.10000n    0.
   15.20000n    0.
   15.30000n    0.
   15.40000n    0.
   15.50000n    0.
   15.60000n    0.
   15.70000n    0.
   15.80000n    0.
   15.90000n    0.
   16.00000n    0.
   16.10000n    0.
   16.20000n    0.
   16.30000n    0.
   16.40000n    0.
   16.50000n    0.
   16.60000n    0.
   16.70000n    0.
   16.80000n    0.
   16.90000n    0.
   17.00000n    0.
   17.10000n    0.
   17.20000n    0.
   17.30000n    0.
   17.40000n    0.
   17.50000n    0.
   17.60000n    0.
   17.70000n    0.
   17.80000n    0.
   17.90000n    0.
   18.00000n    0.
   18.10000n    0.
   18.20000n    0.
   18.30000n    0.
   18.40000n    0.
   18.50000n    0.
   18.60000n    0.
   18.70000n    0.
   18.80000n    0.
   18.90000n    0.
   19.00000n    0.
   19.10000n   50.0000m
   19.20000n  100.0000m
   19.30000n  150.0000m
   19.40000n  200.0000m
   19.50000n  250.0000m
   19.60000n  300.0000m
   19.70000n  350.0000m
   19.80000n  400.0000m
   19.90000n  450.0000m
   20.00000n  500.0000m
   20.10000n  550.0000m
   20.20000n  600.0000m
   20.30000n  650.0000m
   20.40000n  700.0000m
   20.50000n  750.0000m
   20.60000n  800.0000m
   20.70000n  850.0000m
   20.80000n  900.0000m
   20.90000n  950.0000m
   21.00000n    1.0000
   21.10000n    1.0000
   21.20000n    1.0000
   21.30000n    1.0000
   21.40000n    1.0000
   21.50000n    1.0000
   21.60000n    1.0000
   21.70000n    1.0000
   21.80000n    1.0000
   21.90000n    1.0000
   22.00000n    1.0000
   22.10000n    1.0000
   22.20000n    1.0000
   22.30000n    1.0000
   22.40000n    1.0000
   22.50000n    1.0000
   22.60000n    1.0000
   22.70000n    1.0000
   22.80000n    1.0000
   22.90000n    1.0000
   23.00000n    1.0000
   23.10000n    1.0000
   23.20000n    1.0000
   23.30000n    1.0000
   23.40000n    1.0000
   23.50000n    1.0000
   23.60000n    1.0000
   23.70000n    1.0000
   23.80000n    1.0000
   23.90000n    1.0000
   24.00000n    1.0000
   24.10000n    1.0000
   24.20000n    1.0000
   24.30000n    1.0000
   24.40000n    1.0000
   24.50000n    1.0000
   24.60000n    1.0000
   24.70000n    1.0000
   24.80000n    1.0000
   24.90000n    1.0000
   25.00000n    1.0000
   25.10000n    1.0000
   25.20000n    1.0000
   25.30000n    1.0000
   25.40000n    1.0000
   25.50000n    1.0000
   25.60000n    1.0000
   25.70000n    1.0000
   25.80000n    1.0000
   25.90000n    1.0000
   26.00000n    1.0000
   26.10000n  950.0000m
   26.20000n  900.0000m
   26.30000n  850.0000m
   26.40000n  800.0000m
   26.50000n  750.0000m
   26.60000n  700.0000m
   26.70000n  650.0000m
   26.80000n  600.0000m
   26.90000n  550.0000m
   27.00000n  500.0000m
   27.10000n  450.0000m
   27.20000n  400.0000m
   27.30000n  350.0000m
   27.40000n  300.0000m
   27.50000n  250.0000m
   27.60000n  200.0000m
   27.70000n  150.0000m
   27.80000n  100.0000m
   27.90000n   50.0000m
   28.00000n    0.
   28.10000n    0.
   28.20000n    0.
   28.30000n    0.
   28.40000n    0.
   28.50000n    0.
   28.60000n    0.
   28.70000n    0.
   28.80000n    0.
   28.90000n    0.
   29.00000n    0.
   29.10000n    0.
   29.20000n    0.
   29.30000n    0.
   29.40000n    0.
   29.50000n    0.
   29.60000n    0.
   29.70000n    0.
   29.80000n    0.
   29.90000n    0.
   30.00000n    0.
   30.10000n    0.
   30.20000n    0.
   30.30000n    0.
   30.40000n    0.
   30.50000n    0.
   30.60000n    0.
   30.70000n    0.
   30.80000n    0.
   30.90000n    0.
   31.00000n    0.
   31.10000n    0.
   31.20000n    0.
   31.30000n    0.
   31.40000n    0.
   31.50000n    0.
   31.60000n    0.
   31.70000n    0.
   31.80000n    0.
   31.90000n    0.
   32.00000n    0.
   32.10000n    0.
   32.20000n    0.
   32.30000n    0.
   32.40000n    0.
   32.50000n    0.
   32.60000n    0.
   32.70000n    0.
   32.80000n    0.
   32.90000n    0.
   33.00000n    0.
   33.10000n   50.0000m
   33.20000n  100.0000m
   33.30000n  150.0000m
   33.40000n  200.0000m
   33.50000n  250.0000m
   33.60000n  300.0000m
   33.70000n  350.0000m
   33.80000n  400.0000m
   33.90000n  450.0000m
   34.00000n  500.0000m
   34.10000n  550.0000m
   34.20000n  600.0000m
   34.30000n  650.0000m
   34.40000n  700.0000m
   34.50000n  750.0000m
   34.60000n  800.0000m
   34.70000n  850.0000m
   34.80000n  900.0000m
   34.90000n  950.0000m
   35.00000n    1.0000
   35.10000n    1.0000
   35.20000n    1.0000
   35.30000n    1.0000
   35.40000n    1.0000
   35.50000n    1.0000
   35.60000n    1.0000
   35.70000n    1.0000
   35.80000n    1.0000
   35.90000n    1.0000
   36.00000n    1.0000
   36.10000n    1.0000
   36.20000n    1.0000
   36.30000n    1.0000
   36.40000n    1.0000
   36.50000n    1.0000
   36.60000n    1.0000
   36.70000n    1.0000
   36.80000n    1.0000
   36.90000n    1.0000
   37.00000n    1.0000
   37.10000n    1.0000
   37.20000n    1.0000
   37.30000n    1.0000
   37.40000n    1.0000
   37.50000n    1.0000
   37.60000n    1.0000
   37.70000n    1.0000
   37.80000n    1.0000
   37.90000n    1.0000
   38.00000n    1.0000
   38.10000n    1.0000
   38.20000n    1.0000
   38.30000n    1.0000
   38.40000n    1.0000
   38.50000n    1.0000
   38.60000n    1.0000
   38.70000n    1.0000
   38.80000n    1.0000
   38.90000n    1.0000
   39.00000n    1.0000
   39.10000n    1.0000
   39.20000n    1.0000
   39.30000n    1.0000
   39.40000n    1.0000
   39.50000n    1.0000
   39.60000n    1.0000
   39.70000n    1.0000
   39.80000n    1.0000
   39.90000n    1.0000
   40.00000n    1.0000
   40.10000n    1.0000
   40.20000n    1.0000
   40.30000n    1.0000
   40.40000n    1.0000
   40.50000n    1.0000
   40.60000n    1.0000
   40.70000n    1.0000
   40.80000n    1.0000
   40.90000n    1.0000
   41.00000n    1.0000
   41.10000n    1.0000
   41.20000n    1.0000
   41.30000n    1.0000
   41.40000n    1.0000
   41.50000n    1.0000
   41.60000n    1.0000
   41.70000n    1.0000
   41.80000n    1.0000
   41.90000n    1.0000
   42.00000n    1.0000
   42.10000n    1.0000
   42.20000n    1.0000
   42.30000n    1.0000
   42.40000n    1.0000
   42.50000n    1.0000
   42.60000n    1.0000
   42.70000n    1.0000
   42.80000n    1.0000
   42.90000n    1.0000
   43.00000n    1.0000
   43.10000n    1.0000
   43.20000n    1.0000
   43.30000n    1.0000
   43.40000n    1.0000
   43.50000n    1.0000
   43.60000n    1.0000
   43.70000n    1.0000
   43.80000n    1.0000
   43.90000n    1.0000
   44.00000n    1.0000
   44.10000n    1.0000
   44.20000n    1.0000
   44.30000n    1.0000
   44.40000n    1.0000
   44.50000n    1.0000
   44.60000n    1.0000
   44.70000n    1.0000
   44.80000n    1.0000
   44.90000n    1.0000
   45.00000n    1.0000
   45.10000n    1.0000
   45.20000n    1.0000
   45.30000n    1.0000
   45.40000n    1.0000
   45.50000n    1.0000
   45.60000n    1.0000
   45.70000n    1.0000
   45.80000n    1.0000
   45.90000n    1.0000
   46.00000n    1.0000
   46.10000n    1.0000
   46.20000n    1.0000
   46.30000n    1.0000
   46.40000n    1.0000
   46.50000n    1.0000
   46.60000n    1.0000
   46.70000n    1.0000
   46.80000n    1.0000
   46.90000n    1.0000
   47.00000n    1.0000
   47.10000n    1.0000
   47.20000n    1.0000
   47.30000n    1.0000
   47.40000n    1.0000
   47.50000n    1.0000
   47.60000n    1.0000
   47.70000n    1.0000
   47.80000n    1.0000
   47.90000n    1.0000
   48.00000n    1.0000
   48.10000n    1.0000
   48.20000n    1.0000
   48.30000n    1.0000
   48.40000n    1.0000
   48.50000n    1.0000
   48.60000n    1.0000
   48.70000n    1.0000
   48.80000n    1.0000
   48.90000n    1.0000
   49.00000n    1.0000
   49.10000n    1.0000
   49.20000n    1.0000
   49.30000n    1.0000
   49.40000n    1.0000
   49.50000n    1.0000
   49.60000n    1.0000
   49.70000n    1.0000
   49.80000n    1.0000
   49.90000n    1.0000
   50.00000n    1.0000
   50.10000n    1.0000
   50.20000n    1.0000
   50.30000n    1.0000
   50.40000n    1.0000
   50.50000n    1.0000
   50.60000n    1.0000
   50.70000n    1.0000
   50.80000n    1.0000
   50.90000n    1.0000
   51.00000n    1.0000
   51.10000n    1.0000
   51.20000n    1.0000
   51.30000n    1.0000
   51.40000n    1.0000
   51.50000n    1.0000
   51.60000n    1.0000
   51.70000n    1.0000
   51.80000n    1.0000
   51.90000n    1.0000
   52.00000n    1.0000
   52.10000n    1.0000
   52.20000n    1.0000
   52.30000n    1.0000
   52.40000n    1.0000
   52.50000n    1.0000
   52.60000n    1.0000
   52.70000n    1.0000
   52.80000n    1.0000
   52.90000n    1.0000
   53.00000n    1.0000
   53.10000n    1.0000
   53.20000n    1.0000
   53.30000n    1.0000
   53.40000n    1.0000
   53.50000n    1.0000
   53.60000n    1.0000
   53.70000n    1.0000
   53.80000n    1.0000
   53.90000n    1.0000
   54.00000n    1.0000
   54.10000n  950.0000m
   54.20000n  900.0000m
   54.30000n  850.0000m
   54.40000n  800.0000m
   54.50000n  750.0000m
   54.60000n  700.0000m
   54.70000n  650.0000m
   54.80000n  600.0000m
   54.90000n  550.0000m
   55.00000n  500.0000m
   55.10000n  450.0000m
   55.20000n  400.0000m
   55.30000n  350.0000m
   55.40000n  300.0000m
   55.50000n  250.0000m
   55.60000n  200.0000m
   55.70000n  150.0000m
   55.80000n  100.0000m
   55.90000n   50.0000m
   56.00000n    0.
   56.10000n    0.
   56.20000n    0.
   56.30000n    0.
   56.40000n    0.
   56.50000n    0.
   56.60000n    0.
   56.70000n    0.
   56.80000n    0.
   56.90000n    0.
   57.00000n    0.
   57.10000n    0.
   57.20000n    0.
   57.30000n    0.
   57.40000n    0.
   57.50000n    0.
   57.60000n    0.
   57.70000n    0.
   57.80000n    0.
   57.90000n    0.
   58.00000n    0.
   58.10000n    0.
   58.20000n    0.
   58.30000n    0.
   58.40000n    0.
   58.50000n    0.
   58.60000n    0.
   58.70000n    0.
   58.80000n    0.
   58.90000n    0.
   59.00000n    0.
   59.10000n    0.
   59.20000n    0.
   59.30000n    0.
   59.40000n    0.
   59.50000n    0.
   59.60000n    0.
   59.70000n    0.
   59.80000n    0.
   59.90000n    0.
   60.00000n    0.
   60.10000n    0.
   60.20000n    0.
   60.30000n    0.
   60.40000n    0.
   60.50000n    0.
   60.60000n    0.
   60.70000n    0.
   60.80000n    0.
   60.90000n    0.
   61.00000n    0.
   61.10000n   50.0000m
   61.20000n  100.0000m
   61.30000n  150.0000m
   61.40000n  200.0000m
   61.50000n  250.0000m
   61.60000n  300.0000m
   61.70000n  350.0000m
   61.80000n  400.0000m
   61.90000n  450.0000m
   62.00000n  500.0000m
   62.10000n  550.0000m
   62.20000n  600.0000m
   62.30000n  650.0000m
   62.40000n  700.0000m
   62.50000n  750.0000m
   62.60000n  800.0000m
   62.70000n  850.0000m
   62.80000n  900.0000m
   62.90000n  950.0000m
   63.00000n    1.0000
   63.10000n    1.0000
   63.20000n    1.0000
   63.30000n    1.0000
   63.40000n    1.0000
   63.50000n    1.0000
   63.60000n    1.0000
   63.70000n    1.0000
   63.80000n    1.0000
   63.90000n    1.0000
   64.00000n    1.0000
   64.10000n    1.0000
   64.20000n    1.0000
   64.30000n    1.0000
   64.40000n    1.0000
   64.50000n    1.0000
   64.60000n    1.0000
   64.70000n    1.0000
   64.80000n    1.0000
   64.90000n    1.0000
   65.00000n    1.0000
   65.10000n    1.0000
   65.20000n    1.0000
   65.30000n    1.0000
   65.40000n    1.0000
   65.50000n    1.0000
   65.60000n    1.0000
   65.70000n    1.0000
   65.80000n    1.0000
   65.90000n    1.0000
   66.00000n    1.0000
   66.10000n    1.0000
   66.20000n    1.0000
   66.30000n    1.0000
   66.40000n    1.0000
   66.50000n    1.0000
   66.60000n    1.0000
   66.70000n    1.0000
   66.80000n    1.0000
   66.90000n    1.0000
   67.00000n    1.0000
   67.10000n    1.0000
   67.20000n    1.0000
   67.30000n    1.0000
   67.40000n    1.0000
   67.50000n    1.0000
   67.60000n    1.0000
   67.70000n    1.0000
   67.80000n    1.0000
   67.90000n    1.0000
   68.00000n    1.0000
   68.10000n    1.0000
   68.20000n    1.0000
   68.30000n    1.0000
   68.40000n    1.0000
   68.50000n    1.0000
   68.60000n    1.0000
   68.70000n    1.0000
   68.80000n    1.0000
   68.90000n    1.0000
   69.00000n    1.0000
   69.10000n    1.0000
   69.20000n    1.0000
   69.30000n    1.0000
   69.40000n    1.0000
   69.50000n    1.0000
   69.60000n    1.0000
   69.70000n    1.0000
   69.80000n    1.0000
   69.90000n    1.0000
   70.00000n    1.0000
   70.10000n    1.0000
   70.20000n    1.0000
   70.30000n    1.0000
   70.40000n    1.0000
   70.50000n    1.0000
   70.60000n    1.0000
   70.70000n    1.0000
   70.80000n    1.0000
   70.90000n    1.0000
   71.00000n    1.0000
   71.10000n    1.0000
   71.20000n    1.0000
   71.30000n    1.0000
   71.40000n    1.0000
   71.50000n    1.0000
   71.60000n    1.0000
   71.70000n    1.0000
   71.80000n    1.0000
   71.90000n    1.0000
   72.00000n    1.0000
   72.10000n    1.0000
   72.20000n    1.0000
   72.30000n    1.0000
   72.40000n    1.0000
   72.50000n    1.0000
   72.60000n    1.0000
   72.70000n    1.0000
   72.80000n    1.0000
   72.90000n    1.0000
   73.00000n    1.0000
   73.10000n    1.0000
   73.20000n    1.0000
   73.30000n    1.0000
   73.40000n    1.0000
   73.50000n    1.0000
   73.60000n    1.0000
   73.70000n    1.0000
   73.80000n    1.0000
   73.90000n    1.0000
   74.00000n    1.0000
   74.10000n    1.0000
   74.20000n    1.0000
   74.30000n    1.0000
   74.40000n    1.0000
   74.50000n    1.0000
   74.60000n    1.0000
   74.70000n    1.0000
   74.80000n    1.0000
   74.90000n    1.0000
   75.00000n    1.0000
   75.10000n    1.0000
   75.20000n    1.0000
   75.30000n    1.0000
   75.40000n    1.0000
   75.50000n    1.0000
   75.60000n    1.0000
   75.70000n    1.0000
   75.80000n    1.0000
   75.90000n    1.0000
   76.00000n    1.0000
   76.10000n    1.0000
   76.20000n    1.0000
   76.30000n    1.0000
   76.40000n    1.0000
   76.50000n    1.0000
   76.60000n    1.0000
   76.70000n    1.0000
   76.80000n    1.0000
   76.90000n    1.0000
   77.00000n    1.0000
   77.10000n    1.0000
   77.20000n    1.0000
   77.30000n    1.0000
   77.40000n    1.0000
   77.50000n    1.0000
   77.60000n    1.0000
   77.70000n    1.0000
   77.80000n    1.0000
   77.90000n    1.0000
   78.00000n    1.0000
   78.10000n    1.0000
   78.20000n    1.0000
   78.30000n    1.0000
   78.40000n    1.0000
   78.50000n    1.0000
   78.60000n    1.0000
   78.70000n    1.0000
   78.80000n    1.0000
   78.90000n    1.0000
   79.00000n    1.0000
   79.10000n    1.0000
   79.20000n    1.0000
   79.30000n    1.0000
   79.40000n    1.0000
   79.50000n    1.0000
   79.60000n    1.0000
   79.70000n    1.0000
   79.80000n    1.0000
   79.90000n    1.0000
   80.00000n    1.0000
   80.10000n    1.0000
   80.20000n    1.0000
   80.30000n    1.0000
   80.40000n    1.0000
   80.50000n    1.0000
   80.60000n    1.0000
   80.70000n    1.0000
   80.80000n    1.0000
   80.90000n    1.0000
   81.00000n    1.0000
   81.10000n    1.0000
   81.20000n    1.0000
   81.30000n    1.0000
   81.40000n    1.0000
   81.50000n    1.0000
   81.60000n    1.0000
   81.70000n    1.0000
   81.80000n    1.0000
   81.90000n    1.0000
   82.00000n    1.0000
   82.10000n    1.0000
   82.20000n    1.0000
   82.30000n    1.0000
   82.40000n    1.0000
   82.50000n    1.0000
   82.60000n    1.0000
   82.70000n    1.0000
   82.80000n    1.0000
   82.90000n    1.0000
   83.00000n    1.0000
   83.10000n    1.0000
   83.20000n    1.0000
   83.30000n    1.0000
   83.40000n    1.0000
   83.50000n    1.0000
   83.60000n    1.0000
   83.70000n    1.0000
   83.80000n    1.0000
   83.90000n    1.0000
   84.00000n    1.0000
   84.10000n    1.0000
   84.20000n    1.0000
   84.30000n    1.0000
   84.40000n    1.0000
   84.50000n    1.0000
   84.60000n    1.0000
   84.70000n    1.0000
   84.80000n    1.0000
   84.90000n    1.0000
   85.00000n    1.0000
   85.10000n    1.0000
   85.20000n    1.0000
   85.30000n    1.0000
   85.40000n    1.0000
   85.50000n    1.0000
   85.60000n    1.0000
   85.70000n    1.0000
   85.80000n    1.0000
   85.90000n    1.0000
   86.00000n    1.0000
   86.10000n    1.0000
   86.20000n    1.0000
   86.30000n    1.0000
   86.40000n    1.0000
   86.50000n    1.0000
   86.60000n    1.0000
   86.70000n    1.0000
   86.80000n    1.0000
   86.90000n    1.0000
   87.00000n    1.0000
   87.10000n    1.0000
   87.20000n    1.0000
   87.30000n    1.0000
   87.40000n    1.0000
   87.50000n    1.0000
   87.60000n    1.0000
   87.70000n    1.0000
   87.80000n    1.0000
   87.90000n    1.0000
   88.00000n    1.0000
   88.10000n    1.0000
   88.20000n    1.0000
   88.30000n    1.0000
   88.40000n    1.0000
   88.50000n    1.0000
   88.60000n    1.0000
   88.70000n    1.0000
   88.80000n    1.0000
   88.90000n    1.0000
   89.00000n    1.0000
   89.10000n  950.0000m
   89.20000n  900.0000m
   89.30000n  850.0000m
   89.40000n  800.0000m
   89.50000n  750.0000m
   89.60000n  700.0000m
   89.70000n  650.0000m
   89.80000n  600.0000m
   89.90000n  550.0000m
   90.00000n  500.0000m
   90.10000n  450.0000m
   90.20000n  400.0000m
   90.30000n  350.0000m
   90.40000n  300.0000m
   90.50000n  250.0000m
   90.60000n  200.0000m
   90.70000n  150.0000m
   90.80000n  100.0000m
   90.90000n   50.0000m
   91.00000n    0.
   91.10000n    0.
   91.20000n    0.
   91.30000n    0.
   91.40000n    0.
   91.50000n    0.
   91.60000n    0.
   91.70000n    0.
   91.80000n    0.
   91.90000n    0.
   92.00000n    0.
   92.10000n    0.
   92.20000n    0.
   92.30000n    0.
   92.40000n    0.
   92.50000n    0.
   92.60000n    0.
   92.70000n    0.
   92.80000n    0.
   92.90000n    0.
   93.00000n    0.
   93.10000n    0.
   93.20000n    0.
   93.30000n    0.
   93.40000n    0.
   93.50000n    0.
   93.60000n    0.
   93.70000n    0.
   93.80000n    0.
   93.90000n    0.
   94.00000n    0.
   94.10000n    0.
   94.20000n    0.
   94.30000n    0.
   94.40000n    0.
   94.50000n    0.
   94.60000n    0.
   94.70000n    0.
   94.80000n    0.
   94.90000n    0.
   95.00000n    0.
   95.10000n    0.
   95.20000n    0.
   95.30000n    0.
   95.40000n    0.
   95.50000n    0.
   95.60000n    0.
   95.70000n    0.
   95.80000n    0.
   95.90000n    0.
   96.00000n    0.
   96.10000n   50.0000m
   96.20000n  100.0000m
   96.30000n  150.0000m
   96.40000n  200.0000m
   96.50000n  250.0000m
   96.60000n  300.0000m
   96.70000n  350.0000m
   96.80000n  400.0000m
   96.90000n  450.0000m
   97.00000n  500.0000m
   97.10000n  550.0000m
   97.20000n  600.0000m
   97.30000n  650.0000m
   97.40000n  700.0000m
   97.50000n  750.0000m
   97.60000n  800.0000m
   97.70000n  850.0000m
   97.80000n  900.0000m
   97.90000n  950.0000m
   98.00000n    1.0000
   98.10000n    1.0000
   98.20000n    1.0000
   98.30000n    1.0000
   98.40000n    1.0000
   98.50000n    1.0000
   98.60000n    1.0000
   98.70000n    1.0000
   98.80000n    1.0000
   98.90000n    1.0000
   99.00000n    1.0000
   99.10000n    1.0000
   99.20000n    1.0000
   99.30000n    1.0000
   99.40000n    1.0000
   99.50000n    1.0000
   99.60000n    1.0000
   99.70000n    1.0000
   99.80000n    1.0000
   99.90000n    1.0000
  100.00000n    1.0000
  100.10000n    1.0000
  100.20000n    1.0000
  100.30000n    1.0000
  100.40000n    1.0000
  100.50000n    1.0000
  100.60000n    1.0000
  100.70000n    1.0000
  100.80000n    1.0000
  100.90000n    1.0000
  101.00000n    1.0000
  101.10000n    1.0000
  101.20000n    1.0000
  101.30000n    1.0000
  101.40000n    1.0000
  101.50000n    1.0000
  101.60000n    1.0000
  101.70000n    1.0000
  101.80000n    1.0000
  101.90000n    1.0000
  102.00000n    1.0000
  102.10000n    1.0000
  102.20000n    1.0000
  102.30000n    1.0000
  102.40000n    1.0000
  102.50000n    1.0000
  102.60000n    1.0000
  102.70000n    1.0000
  102.80000n    1.0000
  102.90000n    1.0000
  103.00000n    1.0000
  103.10000n    1.0000
  103.20000n    1.0000
  103.30000n    1.0000
  103.40000n    1.0000
  103.50000n    1.0000
  103.60000n    1.0000
  103.70000n    1.0000
  103.80000n    1.0000
  103.90000n    1.0000
  104.00000n    1.0000
  104.10000n    1.0000
  104.20000n    1.0000
  104.30000n    1.0000
  104.40000n    1.0000
  104.50000n    1.0000
  104.60000n    1.0000
  104.70000n    1.0000
  104.80000n    1.0000
  104.90000n    1.0000
  105.00000n    1.0000
  105.10000n    1.0000
  105.20000n    1.0000
  105.30000n    1.0000
  105.40000n    1.0000
  105.50000n    1.0000
  105.60000n    1.0000
  105.70000n    1.0000
  105.80000n    1.0000
  105.90000n    1.0000
  106.00000n    1.0000
  106.10000n    1.0000
  106.20000n    1.0000
  106.30000n    1.0000
  106.40000n    1.0000
  106.50000n    1.0000
  106.60000n    1.0000
  106.70000n    1.0000
  106.80000n    1.0000
  106.90000n    1.0000
  107.00000n    1.0000
  107.10000n    1.0000
  107.20000n    1.0000
  107.30000n    1.0000
  107.40000n    1.0000
  107.50000n    1.0000
  107.60000n    1.0000
  107.70000n    1.0000
  107.80000n    1.0000
  107.90000n    1.0000
  108.00000n    1.0000
  108.10000n    1.0000
  108.20000n    1.0000
  108.30000n    1.0000
  108.40000n    1.0000
  108.50000n    1.0000
  108.60000n    1.0000
  108.70000n    1.0000
  108.80000n    1.0000
  108.90000n    1.0000
  109.00000n    1.0000
  109.10000n    1.0000
  109.20000n    1.0000
  109.30000n    1.0000
  109.40000n    1.0000
  109.50000n    1.0000
  109.60000n    1.0000
  109.70000n    1.0000
  109.80000n    1.0000
  109.90000n    1.0000
  110.00000n    1.0000
  110.10000n  950.0000m
  110.20000n  900.0000m
  110.30000n  850.0000m
  110.40000n  800.0000m
  110.50000n  750.0000m
  110.60000n  700.0000m
  110.70000n  650.0000m
  110.80000n  600.0000m
  110.90000n  550.0000m
  111.00000n  500.0000m
  111.10000n  450.0000m
  111.20000n  400.0000m
  111.30000n  350.0000m
  111.40000n  300.0000m
  111.50000n  250.0000m
  111.60000n  200.0000m
  111.70000n  150.0000m
  111.80000n  100.0000m
  111.90000n   50.0000m
  112.00000n    0.
  112.10000n    0.
  112.20000n    0.
  112.30000n    0.
  112.40000n    0.
  112.50000n    0.
  112.60000n    0.
  112.70000n    0.
  112.80000n    0.
  112.90000n    0.
  113.00000n    0.
  113.10000n    0.
  113.20000n    0.
  113.30000n    0.
  113.40000n    0.
  113.50000n    0.
  113.60000n    0.
  113.70000n    0.
  113.80000n    0.
  113.90000n    0.
  114.00000n    0.
  114.10000n    0.
  114.20000n    0.
  114.30000n    0.
  114.40000n    0.
  114.50000n    0.
  114.60000n    0.
  114.70000n    0.
  114.80000n    0.
  114.90000n    0.
  115.00000n    0.
  115.10000n    0.
  115.20000n    0.
  115.30000n    0.
  115.40000n    0.
  115.50000n    0.
  115.60000n    0.
  115.70000n    0.
  115.80000n    0.
  115.90000n    0.
  116.00000n    0.
  116.10000n    0.
  116.20000n    0.
  116.30000n    0.
  116.40000n    0.
  116.50000n    0.
  116.60000n    0.
  116.70000n    0.
  116.80000n    0.
  116.90000n    0.
  117.00000n    0.
y
x

 time         voltage
             bin
    0.          0.
  100.00000p    0.
  200.00000p    0.
  300.00000p    0.
  400.00000p    0.
  500.00000p    0.
  600.00000p    0.
  700.00000p    0.
  800.00000p    0.
  900.00000p    0.
    1.00000n    0.
    1.10000n    0.
    1.20000n    0.
    1.30000n    0.
    1.40000n    0.
    1.50000n    0.
    1.60000n    0.
    1.70000n    0.
    1.80000n    0.
    1.90000n    0.
    2.00000n    0.
    2.10000n    0.
    2.20000n    0.
    2.30000n    0.
    2.40000n    0.
    2.50000n    0.
    2.60000n    0.
    2.70000n    0.
    2.80000n    0.
    2.90000n    0.
    3.00000n    0.
    3.10000n    0.
    3.20000n    0.
    3.30000n    0.
    3.40000n    0.
    3.50000n    0.
    3.60000n    0.
    3.70000n    0.
    3.80000n    0.
    3.90000n    0.
    4.00000n    0.
    4.10000n    0.
    4.20000n    0.
    4.30000n    0.
    4.40000n    0.
    4.50000n    0.
    4.60000n    0.
    4.70000n    0.
    4.80000n    0.
    4.90000n    0.
    5.00000n    0.
    5.10000n   50.0000m
    5.20000n  100.0000m
    5.30000n  150.0000m
    5.40000n  200.0000m
    5.50000n  250.0000m
    5.60000n  300.0000m
    5.70000n  350.0000m
    5.80000n  400.0000m
    5.90000n  450.0000m
    6.00000n  500.0000m
    6.10000n  550.0000m
    6.20000n  600.0000m
    6.30000n  650.0000m
    6.40000n  700.0000m
    6.50000n  750.0000m
    6.60000n  800.0000m
    6.70000n  850.0000m
    6.80000n  900.0000m
    6.90000n  950.0000m
    7.00000n    1.0000
    7.10000n    1.0000
    7.20000n    1.0000
    7.30000n    1.0000
    7.40000n    1.0000
    7.50000n    1.0000
    7.60000n    1.0000
    7.70000n    1.0000
    7.80000n    1.0000
    7.90000n    1.0000
    8.00000n    1.0000
    8.10000n    1.0000
    8.20000n    1.0000
    8.30000n    1.0000
    8.40000n    1.0000
    8.50000n    1.0000
    8.60000n    1.0000
    8.70000n    1.0000
    8.80000n    1.0000
    8.90000n    1.0000
    9.00000n    1.0000
    9.10000n    1.0000
    9.20000n    1.0000
    9.30000n    1.0000
    9.40000n    1.0000
    9.50000n    1.0000
    9.60000n    1.0000
    9.70000n    1.0000
    9.80000n    1.0000
    9.90000n    1.0000
   10.00000n    1.0000
   10.10000n    1.0000
   10.20000n    1.0000
   10.30000n    1.0000
   10.40000n    1.0000
   10.50000n    1.0000
   10.60000n    1.0000
   10.70000n    1.0000
   10.80000n    1.0000
   10.90000n    1.0000
   11.00000n    1.0000
   11.10000n    1.0000
   11.20000n    1.0000
   11.30000n    1.0000
   11.40000n    1.0000
   11.50000n    1.0000
   11.60000n    1.0000
   11.70000n    1.0000
   11.80000n    1.0000
   11.90000n    1.0000
   12.00000n    1.0000
   12.10000n  950.0000m
   12.20000n  900.0000m
   12.30000n  850.0000m
   12.40000n  800.0000m
   12.50000n  750.0000m
   12.60000n  700.0000m
   12.70000n  650.0000m
   12.80000n  600.0000m
   12.90000n  550.0000m
   13.00000n  500.0000m
   13.10000n  450.0000m
   13.20000n  400.0000m
   13.30000n  350.0000m
   13.40000n  300.0000m
   13.50000n  250.0000m
   13.60000n  200.0000m
   13.70000n  150.0000m
   13.80000n  100.0000m
   13.90000n   50.0000m
   14.00000n    0.
   14.10000n    0.
   14.20000n    0.
   14.30000n    0.
   14.40000n    0.
   14.50000n    0.
   14.60000n    0.
   14.70000n    0.
   14.80000n    0.
   14.90000n    0.
   15.00000n    0.
   15.10000n    0.
   15.20000n    0.
   15.30000n    0.
   15.40000n    0.
   15.50000n    0.
   15.60000n    0.
   15.70000n    0.
   15.80000n    0.
   15.90000n    0.
   16.00000n    0.
   16.10000n    0.
   16.20000n    0.
   16.30000n    0.
   16.40000n    0.
   16.50000n    0.
   16.60000n    0.
   16.70000n    0.
   16.80000n    0.
   16.90000n    0.
   17.00000n    0.
   17.10000n    0.
   17.20000n    0.
   17.30000n    0.
   17.40000n    0.
   17.50000n    0.
   17.60000n    0.
   17.70000n    0.
   17.80000n    0.
   17.90000n    0.
   18.00000n    0.
   18.10000n    0.
   18.20000n    0.
   18.30000n    0.
   18.40000n    0.
   18.50000n    0.
   18.60000n    0.
   18.70000n    0.
   18.80000n    0.
   18.90000n    0.
   19.00000n    0.
   19.10000n   50.0000m
   19.20000n  100.0000m
   19.30000n  150.0000m
   19.40000n  200.0000m
   19.50000n  250.0000m
   19.60000n  300.0000m
   19.70000n  350.0000m
   19.80000n  400.0000m
   19.90000n  450.0000m
   20.00000n  500.0000m
   20.10000n  550.0000m
   20.20000n  600.0000m
   20.30000n  650.0000m
   20.40000n  700.0000m
   20.50000n  750.0000m
   20.60000n  800.0000m
   20.70000n  850.0000m
   20.80000n  900.0000m
   20.90000n  950.0000m
   21.00000n    1.0000
   21.10000n    1.0000
   21.20000n    1.0000
   21.30000n    1.0000
   21.40000n    1.0000
   21.50000n    1.0000
   21.60000n    1.0000
   21.70000n    1.0000
   21.80000n    1.0000
   21.90000n    1.0000
   22.00000n    1.0000
   22.10000n    1.0000
   22.20000n    1.0000
   22.30000n    1.0000
   22.40000n    1.0000
   22.50000n    1.0000
   22.60000n    1.0000
   22.70000n    1.0000
   22.80000n    1.0000
   22.90000n    1.0000
   23.00000n    1.0000
   23.10000n    1.0000
   23.20000n    1.0000
   23.30000n    1.0000
   23.40000n    1.0000
   23.50000n    1.0000
   23.60000n    1.0000
   23.70000n    1.0000
   23.80000n    1.0000
   23.90000n    1.0000
   24.00000n    1.0000
   24.10000n    1.0000
   24.20000n    1.0000
   24.30000n    1.0000
   24.40000n    1.0000
   24.50000n    1.0000
   24.60000n    1.0000
   24.70000n    1.0000
   24.80000n    1.0000
   24.90000n    1.0000
   25.00000n    1.0000
   25.10000n    1.0000
   25.20000n    1.0000
   25.30000n    1.0000
   25.40000n    1.0000
   25.50000n    1.0000
   25.60000n    1.0000
   25.70000n    1.0000
   25.80000n    1.0000
   25.90000n    1.0000
   26.00000n    1.0000
   26.10000n    1.0000
   26.20000n    1.0000
   26.30000n    1.0000
   26.40000n    1.0000
   26.50000n    1.0000
   26.60000n    1.0000
   26.70000n    1.0000
   26.80000n    1.0000
   26.90000n    1.0000
   27.00000n    1.0000
   27.10000n    1.0000
   27.20000n    1.0000
   27.30000n    1.0000
   27.40000n    1.0000
   27.50000n    1.0000
   27.60000n    1.0000
   27.70000n    1.0000
   27.80000n    1.0000
   27.90000n    1.0000
   28.00000n    1.0000
   28.10000n    1.0000
   28.20000n    1.0000
   28.30000n    1.0000
   28.40000n    1.0000
   28.50000n    1.0000
   28.60000n    1.0000
   28.70000n    1.0000
   28.80000n    1.0000
   28.90000n    1.0000
   29.00000n    1.0000
   29.10000n    1.0000
   29.20000n    1.0000
   29.30000n    1.0000
   29.40000n    1.0000
   29.50000n    1.0000
   29.60000n    1.0000
   29.70000n    1.0000
   29.80000n    1.0000
   29.90000n    1.0000
   30.00000n    1.0000
   30.10000n    1.0000
   30.20000n    1.0000
   30.30000n    1.0000
   30.40000n    1.0000
   30.50000n    1.0000
   30.60000n    1.0000
   30.70000n    1.0000
   30.80000n    1.0000
   30.90000n    1.0000
   31.00000n    1.0000
   31.10000n    1.0000
   31.20000n    1.0000
   31.30000n    1.0000
   31.40000n    1.0000
   31.50000n    1.0000
   31.60000n    1.0000
   31.70000n    1.0000
   31.80000n    1.0000
   31.90000n    1.0000
   32.00000n    1.0000
   32.10000n    1.0000
   32.20000n    1.0000
   32.30000n    1.0000
   32.40000n    1.0000
   32.50000n    1.0000
   32.60000n    1.0000
   32.70000n    1.0000
   32.80000n    1.0000
   32.90000n    1.0000
   33.00000n    1.0000
   33.10000n    1.0000
   33.20000n    1.0000
   33.30000n    1.0000
   33.40000n    1.0000
   33.50000n    1.0000
   33.60000n    1.0000
   33.70000n    1.0000
   33.80000n    1.0000
   33.90000n    1.0000
   34.00000n    1.0000
   34.10000n    1.0000
   34.20000n    1.0000
   34.30000n    1.0000
   34.40000n    1.0000
   34.50000n    1.0000
   34.60000n    1.0000
   34.70000n    1.0000
   34.80000n    1.0000
   34.90000n    1.0000
   35.00000n    1.0000
   35.10000n    1.0000
   35.20000n    1.0000
   35.30000n    1.0000
   35.40000n    1.0000
   35.50000n    1.0000
   35.60000n    1.0000
   35.70000n    1.0000
   35.80000n    1.0000
   35.90000n    1.0000
   36.00000n    1.0000
   36.10000n    1.0000
   36.20000n    1.0000
   36.30000n    1.0000
   36.40000n    1.0000
   36.50000n    1.0000
   36.60000n    1.0000
   36.70000n    1.0000
   36.80000n    1.0000
   36.90000n    1.0000
   37.00000n    1.0000
   37.10000n    1.0000
   37.20000n    1.0000
   37.30000n    1.0000
   37.40000n    1.0000
   37.50000n    1.0000
   37.60000n    1.0000
   37.70000n    1.0000
   37.80000n    1.0000
   37.90000n    1.0000
   38.00000n    1.0000
   38.10000n    1.0000
   38.20000n    1.0000
   38.30000n    1.0000
   38.40000n    1.0000
   38.50000n    1.0000
   38.60000n    1.0000
   38.70000n    1.0000
   38.80000n    1.0000
   38.90000n    1.0000
   39.00000n    1.0000
   39.10000n    1.0000
   39.20000n    1.0000
   39.30000n    1.0000
   39.40000n    1.0000
   39.50000n    1.0000
   39.60000n    1.0000
   39.70000n    1.0000
   39.80000n    1.0000
   39.90000n    1.0000
   40.00000n    1.0000
   40.10000n  950.0000m
   40.20000n  900.0000m
   40.30000n  850.0000m
   40.40000n  800.0000m
   40.50000n  750.0000m
   40.60000n  700.0000m
   40.70000n  650.0000m
   40.80000n  600.0000m
   40.90000n  550.0000m
   41.00000n  500.0000m
   41.10000n  450.0000m
   41.20000n  400.0000m
   41.30000n  350.0000m
   41.40000n  300.0000m
   41.50000n  250.0000m
   41.60000n  200.0000m
   41.70000n  150.0000m
   41.80000n  100.0000m
   41.90000n   50.0000m
   42.00000n    0.
   42.10000n    0.
   42.20000n    0.
   42.30000n    0.
   42.40000n    0.
   42.50000n    0.
   42.60000n    0.
   42.70000n    0.
   42.80000n    0.
   42.90000n    0.
   43.00000n    0.
   43.10000n    0.
   43.20000n    0.
   43.30000n    0.
   43.40000n    0.
   43.50000n    0.
   43.60000n    0.
   43.70000n    0.
   43.80000n    0.
   43.90000n    0.
   44.00000n    0.
   44.10000n    0.
   44.20000n    0.
   44.30000n    0.
   44.40000n    0.
   44.50000n    0.
   44.60000n    0.
   44.70000n    0.
   44.80000n    0.
   44.90000n    0.
   45.00000n    0.
   45.10000n    0.
   45.20000n    0.
   45.30000n    0.
   45.40000n    0.
   45.50000n    0.
   45.60000n    0.
   45.70000n    0.
   45.80000n    0.
   45.90000n    0.
   46.00000n    0.
   46.10000n    0.
   46.20000n    0.
   46.30000n    0.
   46.40000n    0.
   46.50000n    0.
   46.60000n    0.
   46.70000n    0.
   46.80000n    0.
   46.90000n    0.
   47.00000n    0.
   47.10000n    0.
   47.20000n    0.
   47.30000n    0.
   47.40000n    0.
   47.50000n    0.
   47.60000n    0.
   47.70000n    0.
   47.80000n    0.
   47.90000n    0.
   48.00000n    0.
   48.10000n    0.
   48.20000n    0.
   48.30000n    0.
   48.40000n    0.
   48.50000n    0.
   48.60000n    0.
   48.70000n    0.
   48.80000n    0.
   48.90000n    0.
   49.00000n    0.
   49.10000n    0.
   49.20000n    0.
   49.30000n    0.
   49.40000n    0.
   49.50000n    0.
   49.60000n    0.
   49.70000n    0.
   49.80000n    0.
   49.90000n    0.
   50.00000n    0.
   50.10000n    0.
   50.20000n    0.
   50.30000n    0.
   50.40000n    0.
   50.50000n    0.
   50.60000n    0.
   50.70000n    0.
   50.80000n    0.
   50.90000n    0.
   51.00000n    0.
   51.10000n    0.
   51.20000n    0.
   51.30000n    0.
   51.40000n    0.
   51.50000n    0.
   51.60000n    0.
   51.70000n    0.
   51.80000n    0.
   51.90000n    0.
   52.00000n    0.
   52.10000n    0.
   52.20000n    0.
   52.30000n    0.
   52.40000n    0.
   52.50000n    0.
   52.60000n    0.
   52.70000n    0.
   52.80000n    0.
   52.90000n    0.
   53.00000n    0.
   53.10000n    0.
   53.20000n    0.
   53.30000n    0.
   53.40000n    0.
   53.50000n    0.
   53.60000n    0.
   53.70000n    0.
   53.80000n    0.
   53.90000n    0.
   54.00000n    0.
   54.10000n   50.0000m
   54.20000n  100.0000m
   54.30000n  150.0000m
   54.40000n  200.0000m
   54.50000n  250.0000m
   54.60000n  300.0000m
   54.70000n  350.0000m
   54.80000n  400.0000m
   54.90000n  450.0000m
   55.00000n  500.0000m
   55.10000n  550.0000m
   55.20000n  600.0000m
   55.30000n  650.0000m
   55.40000n  700.0000m
   55.50000n  750.0000m
   55.60000n  800.0000m
   55.70000n  850.0000m
   55.80000n  900.0000m
   55.90000n  950.0000m
   56.00000n    1.0000
   56.10000n    1.0000
   56.20000n    1.0000
   56.30000n    1.0000
   56.40000n    1.0000
   56.50000n    1.0000
   56.60000n    1.0000
   56.70000n    1.0000
   56.80000n    1.0000
   56.90000n    1.0000
   57.00000n    1.0000
   57.10000n    1.0000
   57.20000n    1.0000
   57.30000n    1.0000
   57.40000n    1.0000
   57.50000n    1.0000
   57.60000n    1.0000
   57.70000n    1.0000
   57.80000n    1.0000
   57.90000n    1.0000
   58.00000n    1.0000
   58.10000n    1.0000
   58.20000n    1.0000
   58.30000n    1.0000
   58.40000n    1.0000
   58.50000n    1.0000
   58.60000n    1.0000
   58.70000n    1.0000
   58.80000n    1.0000
   58.90000n    1.0000
   59.00000n    1.0000
   59.10000n    1.0000
   59.20000n    1.0000
   59.30000n    1.0000
   59.40000n    1.0000
   59.50000n    1.0000
   59.60000n    1.0000
   59.70000n    1.0000
   59.80000n    1.0000
   59.90000n    1.0000
   60.00000n    1.0000
   60.10000n    1.0000
   60.20000n    1.0000
   60.30000n    1.0000
   60.40000n    1.0000
   60.50000n    1.0000
   60.60000n    1.0000
   60.70000n    1.0000
   60.80000n    1.0000
   60.90000n    1.0000
   61.00000n    1.0000
   61.10000n  950.0000m
   61.20000n  900.0000m
   61.30000n  850.0000m
   61.40000n  800.0000m
   61.50000n  750.0000m
   61.60000n  700.0000m
   61.70000n  650.0000m
   61.80000n  600.0000m
   61.90000n  550.0000m
   62.00000n  500.0000m
   62.10000n  450.0000m
   62.20000n  400.0000m
   62.30000n  350.0000m
   62.40000n  300.0000m
   62.50000n  250.0000m
   62.60000n  200.0000m
   62.70000n  150.0000m
   62.80000n  100.0000m
   62.90000n   50.0000m
   63.00000n    0.
   63.10000n    0.
   63.20000n    0.
   63.30000n    0.
   63.40000n    0.
   63.50000n    0.
   63.60000n    0.
   63.70000n    0.
   63.80000n    0.
   63.90000n    0.
   64.00000n    0.
   64.10000n    0.
   64.20000n    0.
   64.30000n    0.
   64.40000n    0.
   64.50000n    0.
   64.60000n    0.
   64.70000n    0.
   64.80000n    0.
   64.90000n    0.
   65.00000n    0.
   65.10000n    0.
   65.20000n    0.
   65.30000n    0.
   65.40000n    0.
   65.50000n    0.
   65.60000n    0.
   65.70000n    0.
   65.80000n    0.
   65.90000n    0.
   66.00000n    0.
   66.10000n    0.
   66.20000n    0.
   66.30000n    0.
   66.40000n    0.
   66.50000n    0.
   66.60000n    0.
   66.70000n    0.
   66.80000n    0.
   66.90000n    0.
   67.00000n    0.
   67.10000n    0.
   67.20000n    0.
   67.30000n    0.
   67.40000n    0.
   67.50000n    0.
   67.60000n    0.
   67.70000n    0.
   67.80000n    0.
   67.90000n    0.
   68.00000n    0.
   68.10000n    0.
   68.20000n    0.
   68.30000n    0.
   68.40000n    0.
   68.50000n    0.
   68.60000n    0.
   68.70000n    0.
   68.80000n    0.
   68.90000n    0.
   69.00000n    0.
   69.10000n    0.
   69.20000n    0.
   69.30000n    0.
   69.40000n    0.
   69.50000n    0.
   69.60000n    0.
   69.70000n    0.
   69.80000n    0.
   69.90000n    0.
   70.00000n    0.
   70.10000n    0.
   70.20000n    0.
   70.30000n    0.
   70.40000n    0.
   70.50000n    0.
   70.60000n    0.
   70.70000n    0.
   70.80000n    0.
   70.90000n    0.
   71.00000n    0.
   71.10000n    0.
   71.20000n    0.
   71.30000n    0.
   71.40000n    0.
   71.50000n    0.
   71.60000n    0.
   71.70000n    0.
   71.80000n    0.
   71.90000n    0.
   72.00000n    0.
   72.10000n    0.
   72.20000n    0.
   72.30000n    0.
   72.40000n    0.
   72.50000n    0.
   72.60000n    0.
   72.70000n    0.
   72.80000n    0.
   72.90000n    0.
   73.00000n    0.
   73.10000n    0.
   73.20000n    0.
   73.30000n    0.
   73.40000n    0.
   73.50000n    0.
   73.60000n    0.
   73.70000n    0.
   73.80000n    0.
   73.90000n    0.
   74.00000n    0.
   74.10000n    0.
   74.20000n    0.
   74.30000n    0.
   74.40000n    0.
   74.50000n    0.
   74.60000n    0.
   74.70000n    0.
   74.80000n    0.
   74.90000n    0.
   75.00000n    0.
   75.10000n    0.
   75.20000n    0.
   75.30000n    0.
   75.40000n    0.
   75.50000n    0.
   75.60000n    0.
   75.70000n    0.
   75.80000n    0.
   75.90000n    0.
   76.00000n    0.
   76.10000n    0.
   76.20000n    0.
   76.30000n    0.
   76.40000n    0.
   76.50000n    0.
   76.60000n    0.
   76.70000n    0.
   76.80000n    0.
   76.90000n    0.
   77.00000n    0.
   77.10000n    0.
   77.20000n    0.
   77.30000n    0.
   77.40000n    0.
   77.50000n    0.
   77.60000n    0.
   77.70000n    0.
   77.80000n    0.
   77.90000n    0.
   78.00000n    0.
   78.10000n    0.
   78.20000n    0.
   78.30000n    0.
   78.40000n    0.
   78.50000n    0.
   78.60000n    0.
   78.70000n    0.
   78.80000n    0.
   78.90000n    0.
   79.00000n    0.
   79.10000n    0.
   79.20000n    0.
   79.30000n    0.
   79.40000n    0.
   79.50000n    0.
   79.60000n    0.
   79.70000n    0.
   79.80000n    0.
   79.90000n    0.
   80.00000n    0.
   80.10000n    0.
   80.20000n    0.
   80.30000n    0.
   80.40000n    0.
   80.50000n    0.
   80.60000n    0.
   80.70000n    0.
   80.80000n    0.
   80.90000n    0.
   81.00000n    0.
   81.10000n    0.
   81.20000n    0.
   81.30000n    0.
   81.40000n    0.
   81.50000n    0.
   81.60000n    0.
   81.70000n    0.
   81.80000n    0.
   81.90000n    0.
   82.00000n    0.
   82.10000n   50.0000m
   82.20000n  100.0000m
   82.30000n  150.0000m
   82.40000n  200.0000m
   82.50000n  250.0000m
   82.60000n  300.0000m
   82.70000n  350.0000m
   82.80000n  400.0000m
   82.90000n  450.0000m
   83.00000n  500.0000m
   83.10000n  550.0000m
   83.20000n  600.0000m
   83.30000n  650.0000m
   83.40000n  700.0000m
   83.50000n  750.0000m
   83.60000n  800.0000m
   83.70000n  850.0000m
   83.80000n  900.0000m
   83.90000n  950.0000m
   84.00000n    1.0000
   84.10000n    1.0000
   84.20000n    1.0000
   84.30000n    1.0000
   84.40000n    1.0000
   84.50000n    1.0000
   84.60000n    1.0000
   84.70000n    1.0000
   84.80000n    1.0000
   84.90000n    1.0000
   85.00000n    1.0000
   85.10000n    1.0000
   85.20000n    1.0000
   85.30000n    1.0000
   85.40000n    1.0000
   85.50000n    1.0000
   85.60000n    1.0000
   85.70000n    1.0000
   85.80000n    1.0000
   85.90000n    1.0000
   86.00000n    1.0000
   86.10000n    1.0000
   86.20000n    1.0000
   86.30000n    1.0000
   86.40000n    1.0000
   86.50000n    1.0000
   86.60000n    1.0000
   86.70000n    1.0000
   86.80000n    1.0000
   86.90000n    1.0000
   87.00000n    1.0000
   87.10000n    1.0000
   87.20000n    1.0000
   87.30000n    1.0000
   87.40000n    1.0000
   87.50000n    1.0000
   87.60000n    1.0000
   87.70000n    1.0000
   87.80000n    1.0000
   87.90000n    1.0000
   88.00000n    1.0000
   88.10000n    1.0000
   88.20000n    1.0000
   88.30000n    1.0000
   88.40000n    1.0000
   88.50000n    1.0000
   88.60000n    1.0000
   88.70000n    1.0000
   88.80000n    1.0000
   88.90000n    1.0000
   89.00000n    1.0000
   89.10000n  950.0000m
   89.20000n  900.0000m
   89.30000n  850.0000m
   89.40000n  800.0000m
   89.50000n  750.0000m
   89.60000n  700.0000m
   89.70000n  650.0000m
   89.80000n  600.0000m
   89.90000n  550.0000m
   90.00000n  500.0000m
   90.10000n  450.0000m
   90.20000n  400.0000m
   90.30000n  350.0000m
   90.40000n  300.0000m
   90.50000n  250.0000m
   90.60000n  200.0000m
   90.70000n  150.0000m
   90.80000n  100.0000m
   90.90000n   50.0000m
   91.00000n    0.
   91.10000n    0.
   91.20000n    0.
   91.30000n    0.
   91.40000n    0.
   91.50000n    0.
   91.60000n    0.
   91.70000n    0.
   91.80000n    0.
   91.90000n    0.
   92.00000n    0.
   92.10000n    0.
   92.20000n    0.
   92.30000n    0.
   92.40000n    0.
   92.50000n    0.
   92.60000n    0.
   92.70000n    0.
   92.80000n    0.
   92.90000n    0.
   93.00000n    0.
   93.10000n    0.
   93.20000n    0.
   93.30000n    0.
   93.40000n    0.
   93.50000n    0.
   93.60000n    0.
   93.70000n    0.
   93.80000n    0.
   93.90000n    0.
   94.00000n    0.
   94.10000n    0.
   94.20000n    0.
   94.30000n    0.
   94.40000n    0.
   94.50000n    0.
   94.60000n    0.
   94.70000n    0.
   94.80000n    0.
   94.90000n    0.
   95.00000n    0.
   95.10000n    0.
   95.20000n    0.
   95.30000n    0.
   95.40000n    0.
   95.50000n    0.
   95.60000n    0.
   95.70000n    0.
   95.80000n    0.
   95.90000n    0.
   96.00000n    0.
   96.10000n   50.0000m
   96.20000n  100.0000m
   96.30000n  150.0000m
   96.40000n  200.0000m
   96.50000n  250.0000m
   96.60000n  300.0000m
   96.70000n  350.0000m
   96.80000n  400.0000m
   96.90000n  450.0000m
   97.00000n  500.0000m
   97.10000n  550.0000m
   97.20000n  600.0000m
   97.30000n  650.0000m
   97.40000n  700.0000m
   97.50000n  750.0000m
   97.60000n  800.0000m
   97.70000n  850.0000m
   97.80000n  900.0000m
   97.90000n  950.0000m
   98.00000n    1.0000
   98.10000n    1.0000
   98.20000n    1.0000
   98.30000n    1.0000
   98.40000n    1.0000
   98.50000n    1.0000
   98.60000n    1.0000
   98.70000n    1.0000
   98.80000n    1.0000
   98.90000n    1.0000
   99.00000n    1.0000
   99.10000n    1.0000
   99.20000n    1.0000
   99.30000n    1.0000
   99.40000n    1.0000
   99.50000n    1.0000
   99.60000n    1.0000
   99.70000n    1.0000
   99.80000n    1.0000
   99.90000n    1.0000
  100.00000n    1.0000
  100.10000n    1.0000
  100.20000n    1.0000
  100.30000n    1.0000
  100.40000n    1.0000
  100.50000n    1.0000
  100.60000n    1.0000
  100.70000n    1.0000
  100.80000n    1.0000
  100.90000n    1.0000
  101.00000n    1.0000
  101.10000n    1.0000
  101.20000n    1.0000
  101.30000n    1.0000
  101.40000n    1.0000
  101.50000n    1.0000
  101.60000n    1.0000
  101.70000n    1.0000
  101.80000n    1.0000
  101.90000n    1.0000
  102.00000n    1.0000
  102.10000n    1.0000
  102.20000n    1.0000
  102.30000n    1.0000
  102.40000n    1.0000
  102.50000n    1.0000
  102.60000n    1.0000
  102.70000n    1.0000
  102.80000n    1.0000
  102.90000n    1.0000
  103.00000n    1.0000
  103.10000n    1.0000
  103.20000n    1.0000
  103.30000n    1.0000
  103.40000n    1.0000
  103.50000n    1.0000
  103.60000n    1.0000
  103.70000n    1.0000
  103.80000n    1.0000
  103.90000n    1.0000
  104.00000n    1.0000
  104.10000n    1.0000
  104.20000n    1.0000
  104.30000n    1.0000
  104.40000n    1.0000
  104.50000n    1.0000
  104.60000n    1.0000
  104.70000n    1.0000
  104.80000n    1.0000
  104.90000n    1.0000
  105.00000n    1.0000
  105.10000n    1.0000
  105.20000n    1.0000
  105.30000n    1.0000
  105.40000n    1.0000
  105.50000n    1.0000
  105.60000n    1.0000
  105.70000n    1.0000
  105.80000n    1.0000
  105.90000n    1.0000
  106.00000n    1.0000
  106.10000n    1.0000
  106.20000n    1.0000
  106.30000n    1.0000
  106.40000n    1.0000
  106.50000n    1.0000
  106.60000n    1.0000
  106.70000n    1.0000
  106.80000n    1.0000
  106.90000n    1.0000
  107.00000n    1.0000
  107.10000n    1.0000
  107.20000n    1.0000
  107.30000n    1.0000
  107.40000n    1.0000
  107.50000n    1.0000
  107.60000n    1.0000
  107.70000n    1.0000
  107.80000n    1.0000
  107.90000n    1.0000
  108.00000n    1.0000
  108.10000n    1.0000
  108.20000n    1.0000
  108.30000n    1.0000
  108.40000n    1.0000
  108.50000n    1.0000
  108.60000n    1.0000
  108.70000n    1.0000
  108.80000n    1.0000
  108.90000n    1.0000
  109.00000n    1.0000
  109.10000n    1.0000
  109.20000n    1.0000
  109.30000n    1.0000
  109.40000n    1.0000
  109.50000n    1.0000
  109.60000n    1.0000
  109.70000n    1.0000
  109.80000n    1.0000
  109.90000n    1.0000
  110.00000n    1.0000
  110.10000n  950.0000m
  110.20000n  900.0000m
  110.30000n  850.0000m
  110.40000n  800.0000m
  110.50000n  750.0000m
  110.60000n  700.0000m
  110.70000n  650.0000m
  110.80000n  600.0000m
  110.90000n  550.0000m
  111.00000n  500.0000m
  111.10000n  450.0000m
  111.20000n  400.0000m
  111.30000n  350.0000m
  111.40000n  300.0000m
  111.50000n  250.0000m
  111.60000n  200.0000m
  111.70000n  150.0000m
  111.80000n  100.0000m
  111.90000n   50.0000m
  112.00000n    0.
  112.10000n    0.
  112.20000n    0.
  112.30000n    0.
  112.40000n    0.
  112.50000n    0.
  112.60000n    0.
  112.70000n    0.
  112.80000n    0.
  112.90000n    0.
  113.00000n    0.
  113.10000n    0.
  113.20000n    0.
  113.30000n    0.
  113.40000n    0.
  113.50000n    0.
  113.60000n    0.
  113.70000n    0.
  113.80000n    0.
  113.90000n    0.
  114.00000n    0.
  114.10000n    0.
  114.20000n    0.
  114.30000n    0.
  114.40000n    0.
  114.50000n    0.
  114.60000n    0.
  114.70000n    0.
  114.80000n    0.
  114.90000n    0.
  115.00000n    0.
  115.10000n    0.
  115.20000n    0.
  115.30000n    0.
  115.40000n    0.
  115.50000n    0.
  115.60000n    0.
  115.70000n    0.
  115.80000n    0.
  115.90000n    0.
  116.00000n    0.
  116.10000n    0.
  116.20000n    0.
  116.30000n    0.
  116.40000n    0.
  116.50000n    0.
  116.60000n    0.
  116.70000n    0.
  116.80000n    0.
  116.90000n    0.
  117.00000n    0.
y
x

 time         voltage
             cin
    0.          0.
  100.00000p    0.
  200.00000p    0.
  300.00000p    0.
  400.00000p    0.
  500.00000p    0.
  600.00000p    0.
  700.00000p    0.
  800.00000p    0.
  900.00000p    0.
    1.00000n    0.
    1.10000n    0.
    1.20000n    0.
    1.30000n    0.
    1.40000n    0.
    1.50000n    0.
    1.60000n    0.
    1.70000n    0.
    1.80000n    0.
    1.90000n    0.
    2.00000n    0.
    2.10000n    0.
    2.20000n    0.
    2.30000n    0.
    2.40000n    0.
    2.50000n    0.
    2.60000n    0.
    2.70000n    0.
    2.80000n    0.
    2.90000n    0.
    3.00000n    0.
    3.10000n    0.
    3.20000n    0.
    3.30000n    0.
    3.40000n    0.
    3.50000n    0.
    3.60000n    0.
    3.70000n    0.
    3.80000n    0.
    3.90000n    0.
    4.00000n    0.
    4.10000n    0.
    4.20000n    0.
    4.30000n    0.
    4.40000n    0.
    4.50000n    0.
    4.60000n    0.
    4.70000n    0.
    4.80000n    0.
    4.90000n    0.
    5.00000n    0.
    5.10000n    0.
    5.20000n    0.
    5.30000n    0.
    5.40000n    0.
    5.50000n    0.
    5.60000n    0.
    5.70000n    0.
    5.80000n    0.
    5.90000n    0.
    6.00000n    0.
    6.10000n    0.
    6.20000n    0.
    6.30000n    0.
    6.40000n    0.
    6.50000n    0.
    6.60000n    0.
    6.70000n    0.
    6.80000n    0.
    6.90000n    0.
    7.00000n    0.
    7.10000n    0.
    7.20000n    0.
    7.30000n    0.
    7.40000n    0.
    7.50000n    0.
    7.60000n    0.
    7.70000n    0.
    7.80000n    0.
    7.90000n    0.
    8.00000n    0.
    8.10000n    0.
    8.20000n    0.
    8.30000n    0.
    8.40000n    0.
    8.50000n    0.
    8.60000n    0.
    8.70000n    0.
    8.80000n    0.
    8.90000n    0.
    9.00000n    0.
    9.10000n    0.
    9.20000n    0.
    9.30000n    0.
    9.40000n    0.
    9.50000n    0.
    9.60000n    0.
    9.70000n    0.
    9.80000n    0.
    9.90000n    0.
   10.00000n    0.
   10.10000n    0.
   10.20000n    0.
   10.30000n    0.
   10.40000n    0.
   10.50000n    0.
   10.60000n    0.
   10.70000n    0.
   10.80000n    0.
   10.90000n    0.
   11.00000n    0.
   11.10000n    0.
   11.20000n    0.
   11.30000n    0.
   11.40000n    0.
   11.50000n    0.
   11.60000n    0.
   11.70000n    0.
   11.80000n    0.
   11.90000n    0.
   12.00000n    0.
   12.10000n   50.0000m
   12.20000n  100.0000m
   12.30000n  150.0000m
   12.40000n  200.0000m
   12.50000n  250.0000m
   12.60000n  300.0000m
   12.70000n  350.0000m
   12.80000n  400.0000m
   12.90000n  450.0000m
   13.00000n  500.0000m
   13.10000n  550.0000m
   13.20000n  600.0000m
   13.30000n  650.0000m
   13.40000n  700.0000m
   13.50000n  750.0000m
   13.60000n  800.0000m
   13.70000n  850.0000m
   13.80000n  900.0000m
   13.90000n  950.0000m
   14.00000n    1.0000
   14.10000n    1.0000
   14.20000n    1.0000
   14.30000n    1.0000
   14.40000n    1.0000
   14.50000n    1.0000
   14.60000n    1.0000
   14.70000n    1.0000
   14.80000n    1.0000
   14.90000n    1.0000
   15.00000n    1.0000
   15.10000n    1.0000
   15.20000n    1.0000
   15.30000n    1.0000
   15.40000n    1.0000
   15.50000n    1.0000
   15.60000n    1.0000
   15.70000n    1.0000
   15.80000n    1.0000
   15.90000n    1.0000
   16.00000n    1.0000
   16.10000n    1.0000
   16.20000n    1.0000
   16.30000n    1.0000
   16.40000n    1.0000
   16.50000n    1.0000
   16.60000n    1.0000
   16.70000n    1.0000
   16.80000n    1.0000
   16.90000n    1.0000
   17.00000n    1.0000
   17.10000n    1.0000
   17.20000n    1.0000
   17.30000n    1.0000
   17.40000n    1.0000
   17.50000n    1.0000
   17.60000n    1.0000
   17.70000n    1.0000
   17.80000n    1.0000
   17.90000n    1.0000
   18.00000n    1.0000
   18.10000n    1.0000
   18.20000n    1.0000
   18.30000n    1.0000
   18.40000n    1.0000
   18.50000n    1.0000
   18.60000n    1.0000
   18.70000n    1.0000
   18.80000n    1.0000
   18.90000n    1.0000
   19.00000n    1.0000
   19.10000n  950.0000m
   19.20000n  900.0000m
   19.30000n  850.0000m
   19.40000n  800.0000m
   19.50000n  750.0000m
   19.60000n  700.0000m
   19.70000n  650.0000m
   19.80000n  600.0000m
   19.90000n  550.0000m
   20.00000n  500.0000m
   20.10000n  450.0000m
   20.20000n  400.0000m
   20.30000n  350.0000m
   20.40000n  300.0000m
   20.50000n  250.0000m
   20.60000n  200.0000m
   20.70000n  150.0000m
   20.80000n  100.0000m
   20.90000n   50.0000m
   21.00000n    0.
   21.10000n    0.
   21.20000n    0.
   21.30000n    0.
   21.40000n    0.
   21.50000n    0.
   21.60000n    0.
   21.70000n    0.
   21.80000n    0.
   21.90000n    0.
   22.00000n    0.
   22.10000n    0.
   22.20000n    0.
   22.30000n    0.
   22.40000n    0.
   22.50000n    0.
   22.60000n    0.
   22.70000n    0.
   22.80000n    0.
   22.90000n    0.
   23.00000n    0.
   23.10000n    0.
   23.20000n    0.
   23.30000n    0.
   23.40000n    0.
   23.50000n    0.
   23.60000n    0.
   23.70000n    0.
   23.80000n    0.
   23.90000n    0.
   24.00000n    0.
   24.10000n    0.
   24.20000n    0.
   24.30000n    0.
   24.40000n    0.
   24.50000n    0.
   24.60000n    0.
   24.70000n    0.
   24.80000n    0.
   24.90000n    0.
   25.00000n    0.
   25.10000n    0.
   25.20000n    0.
   25.30000n    0.
   25.40000n    0.
   25.50000n    0.
   25.60000n    0.
   25.70000n    0.
   25.80000n    0.
   25.90000n    0.
   26.00000n    0.
   26.10000n    0.
   26.20000n    0.
   26.30000n    0.
   26.40000n    0.
   26.50000n    0.
   26.60000n    0.
   26.70000n    0.
   26.80000n    0.
   26.90000n    0.
   27.00000n    0.
   27.10000n    0.
   27.20000n    0.
   27.30000n    0.
   27.40000n    0.
   27.50000n    0.
   27.60000n    0.
   27.70000n    0.
   27.80000n    0.
   27.90000n    0.
   28.00000n    0.
   28.10000n    0.
   28.20000n    0.
   28.30000n    0.
   28.40000n    0.
   28.50000n    0.
   28.60000n    0.
   28.70000n    0.
   28.80000n    0.
   28.90000n    0.
   29.00000n    0.
   29.10000n    0.
   29.20000n    0.
   29.30000n    0.
   29.40000n    0.
   29.50000n    0.
   29.60000n    0.
   29.70000n    0.
   29.80000n    0.
   29.90000n    0.
   30.00000n    0.
   30.10000n    0.
   30.20000n    0.
   30.30000n    0.
   30.40000n    0.
   30.50000n    0.
   30.60000n    0.
   30.70000n    0.
   30.80000n    0.
   30.90000n    0.
   31.00000n    0.
   31.10000n    0.
   31.20000n    0.
   31.30000n    0.
   31.40000n    0.
   31.50000n    0.
   31.60000n    0.
   31.70000n    0.
   31.80000n    0.
   31.90000n    0.
   32.00000n    0.
   32.10000n    0.
   32.20000n    0.
   32.30000n    0.
   32.40000n    0.
   32.50000n    0.
   32.60000n    0.
   32.70000n    0.
   32.80000n    0.
   32.90000n    0.
   33.00000n    0.
   33.10000n    0.
   33.20000n    0.
   33.30000n    0.
   33.40000n    0.
   33.50000n    0.
   33.60000n    0.
   33.70000n    0.
   33.80000n    0.
   33.90000n    0.
   34.00000n    0.
   34.10000n    0.
   34.20000n    0.
   34.30000n    0.
   34.40000n    0.
   34.50000n    0.
   34.60000n    0.
   34.70000n    0.
   34.80000n    0.
   34.90000n    0.
   35.00000n    0.
   35.10000n    0.
   35.20000n    0.
   35.30000n    0.
   35.40000n    0.
   35.50000n    0.
   35.60000n    0.
   35.70000n    0.
   35.80000n    0.
   35.90000n    0.
   36.00000n    0.
   36.10000n    0.
   36.20000n    0.
   36.30000n    0.
   36.40000n    0.
   36.50000n    0.
   36.60000n    0.
   36.70000n    0.
   36.80000n    0.
   36.90000n    0.
   37.00000n    0.
   37.10000n    0.
   37.20000n    0.
   37.30000n    0.
   37.40000n    0.
   37.50000n    0.
   37.60000n    0.
   37.70000n    0.
   37.80000n    0.
   37.90000n    0.
   38.00000n    0.
   38.10000n    0.
   38.20000n    0.
   38.30000n    0.
   38.40000n    0.
   38.50000n    0.
   38.60000n    0.
   38.70000n    0.
   38.80000n    0.
   38.90000n    0.
   39.00000n    0.
   39.10000n    0.
   39.20000n    0.
   39.30000n    0.
   39.40000n    0.
   39.50000n    0.
   39.60000n    0.
   39.70000n    0.
   39.80000n    0.
   39.90000n    0.
   40.00000n    0.
   40.10000n    0.
   40.20000n    0.
   40.30000n    0.
   40.40000n    0.
   40.50000n    0.
   40.60000n    0.
   40.70000n    0.
   40.80000n    0.
   40.90000n    0.
   41.00000n    0.
   41.10000n    0.
   41.20000n    0.
   41.30000n    0.
   41.40000n    0.
   41.50000n    0.
   41.60000n    0.
   41.70000n    0.
   41.80000n    0.
   41.90000n    0.
   42.00000n    0.
   42.10000n    0.
   42.20000n    0.
   42.30000n    0.
   42.40000n    0.
   42.50000n    0.
   42.60000n    0.
   42.70000n    0.
   42.80000n    0.
   42.90000n    0.
   43.00000n    0.
   43.10000n    0.
   43.20000n    0.
   43.30000n    0.
   43.40000n    0.
   43.50000n    0.
   43.60000n    0.
   43.70000n    0.
   43.80000n    0.
   43.90000n    0.
   44.00000n    0.
   44.10000n    0.
   44.20000n    0.
   44.30000n    0.
   44.40000n    0.
   44.50000n    0.
   44.60000n    0.
   44.70000n    0.
   44.80000n    0.
   44.90000n    0.
   45.00000n    0.
   45.10000n    0.
   45.20000n    0.
   45.30000n    0.
   45.40000n    0.
   45.50000n    0.
   45.60000n    0.
   45.70000n    0.
   45.80000n    0.
   45.90000n    0.
   46.00000n    0.
   46.10000n    0.
   46.20000n    0.
   46.30000n    0.
   46.40000n    0.
   46.50000n    0.
   46.60000n    0.
   46.70000n    0.
   46.80000n    0.
   46.90000n    0.
   47.00000n    0.
   47.10000n    0.
   47.20000n    0.
   47.30000n    0.
   47.40000n    0.
   47.50000n    0.
   47.60000n    0.
   47.70000n    0.
   47.80000n    0.
   47.90000n    0.
   48.00000n    0.
   48.10000n    0.
   48.20000n    0.
   48.30000n    0.
   48.40000n    0.
   48.50000n    0.
   48.60000n    0.
   48.70000n    0.
   48.80000n    0.
   48.90000n    0.
   49.00000n    0.
   49.10000n    0.
   49.20000n    0.
   49.30000n    0.
   49.40000n    0.
   49.50000n    0.
   49.60000n    0.
   49.70000n    0.
   49.80000n    0.
   49.90000n    0.
   50.00000n    0.
   50.10000n    0.
   50.20000n    0.
   50.30000n    0.
   50.40000n    0.
   50.50000n    0.
   50.60000n    0.
   50.70000n    0.
   50.80000n    0.
   50.90000n    0.
   51.00000n    0.
   51.10000n    0.
   51.20000n    0.
   51.30000n    0.
   51.40000n    0.
   51.50000n    0.
   51.60000n    0.
   51.70000n    0.
   51.80000n    0.
   51.90000n    0.
   52.00000n    0.
   52.10000n    0.
   52.20000n    0.
   52.30000n    0.
   52.40000n    0.
   52.50000n    0.
   52.60000n    0.
   52.70000n    0.
   52.80000n    0.
   52.90000n    0.
   53.00000n    0.
   53.10000n    0.
   53.20000n    0.
   53.30000n    0.
   53.40000n    0.
   53.50000n    0.
   53.60000n    0.
   53.70000n    0.
   53.80000n    0.
   53.90000n    0.
   54.00000n    0.
   54.10000n   50.0000m
   54.20000n  100.0000m
   54.30000n  150.0000m
   54.40000n  200.0000m
   54.50000n  250.0000m
   54.60000n  300.0000m
   54.70000n  350.0000m
   54.80000n  400.0000m
   54.90000n  450.0000m
   55.00000n  500.0000m
   55.10000n  550.0000m
   55.20000n  600.0000m
   55.30000n  650.0000m
   55.40000n  700.0000m
   55.50000n  750.0000m
   55.60000n  800.0000m
   55.70000n  850.0000m
   55.80000n  900.0000m
   55.90000n  950.0000m
   56.00000n    1.0000
   56.10000n    1.0000
   56.20000n    1.0000
   56.30000n    1.0000
   56.40000n    1.0000
   56.50000n    1.0000
   56.60000n    1.0000
   56.70000n    1.0000
   56.80000n    1.0000
   56.90000n    1.0000
   57.00000n    1.0000
   57.10000n    1.0000
   57.20000n    1.0000
   57.30000n    1.0000
   57.40000n    1.0000
   57.50000n    1.0000
[...]
   48.70000n    1.0000
   48.80000n    1.0000
   48.90000n    1.0000
   49.00000n    1.0000
   49.10000n    1.0000
   49.20000n    1.0000
   49.30000n    1.0000
   49.40000n    1.0000
   49.50000n    1.0000
   49.60000n  999.9999m
   49.70000n  999.9994m
   49.80000n  999.9989m
   49.90000n  999.9983m
   50.00000n  999.9978m
   50.10000n  999.9973m
   50.20000n  999.9968m
   50.30000n  999.9962m
   50.40000n  999.9957m
   50.50000n  999.9952m
   50.60000n  999.9947m
   50.70000n  999.9941m
   50.80000n  999.9936m
   50.90000n  999.9933m
   51.00000n  999.9938m
   51.10000n  999.9942m
   51.20000n  999.9946m
   51.30000n  999.9950m
   51.40000n  999.9955m
   51.50000n  999.9959m
   51.60000n  999.9963m
   51.70000n  999.9967m
   51.80000n  999.9972m
   51.90000n  999.9976m
   52.00000n  999.9980m
   52.10000n  999.9984m
   52.20000n  999.9989m
   52.30000n  999.9993m
   52.40000n  999.9997m
   52.50000n    1.0000
   52.60000n    1.0000
   52.70000n    1.0000
   52.80000n    1.0000
   52.90000n    1.0000
   53.00000n    1.0000
   53.10000n    1.0000
   53.20000n    1.0000
   53.30000n    1.0000
   53.40000n    1.0000
   53.50000n    1.0000
   53.60000n    1.0000
   53.70000n    1.0000
   53.80000n    1.0000
   53.90000n    1.0000
   54.00000n    1.0000
   54.10000n    1.0001
   54.20000n  999.9953m
   54.30000n  999.9838m
   54.40000n  999.9759m
   54.50000n  999.9680m
   54.60000n  999.9602m
   54.70000n  999.9622m
   54.80000n  999.9806m
   54.90000n  999.9991m
   55.00000n    1.0000
   55.10000n    1.0001
   55.20000n    1.0000
   55.30000n  999.9339m
   55.40000n  999.7839m
   55.50000n  999.7275m
   55.60000n    1.0048
   55.70000n    1.0193
   55.80000n    1.0418
   55.90000n  322.3528m
   56.00000n    3.3025m
   56.10000n  977.8426u
   56.20000n  323.4468u
   56.30000n   89.1729u
   56.40000n   33.4253u
   56.50000n    5.1872u
   56.60000n    2.4059u
   56.70000n  570.1018n
   56.80000n -530.1299n
   56.90000n   -1.6304u
   57.00000n   -1.5516u
   57.10000n -713.9817n
   57.20000n  123.6745n
   57.30000n  961.3306n
   57.40000n    1.7990u
   57.50000n    2.6366u
   57.60000n    2.3422u
   57.70000n    1.9034u
   57.80000n    1.4645u
   57.90000n    1.0256u
   58.00000n  586.7571n
   58.10000n  147.8893n
   58.20000n -290.9785n
   58.30000n -729.8463n
   58.40000n   -1.1687u
   58.50000n   -1.6076u
   58.60000n   -2.0464u
   58.70000n   -2.4488u
   58.80000n   -2.0982u
   58.90000n   -1.7476u
   59.00000n   -1.3970u
   59.10000n   -1.0463u
   59.20000n -695.7138n
   59.30000n -345.0885n
   59.40000n    5.5368n
   59.50000n  356.1621n
   59.60000n  706.7874n
   59.70000n    1.0574u
   59.80000n    1.4080u
   59.90000n    1.7587u
   60.00000n    2.1093u
   60.10000n    2.4599u
   60.20000n    2.2384u
   60.30000n    1.6457u
   60.40000n    1.0530u
   60.50000n  460.3173n
   60.60000n -132.3677n
   60.70000n -725.0527n
   60.80000n   -1.3177u
   60.90000n   -1.9104u
   61.00000n   -2.5031u
   61.10000n  -12.4916u
   61.20000n    3.6023u
   61.30000n    4.7722u
   61.40000n    5.1802u
   61.50000n    1.1553u
   61.60000n   -2.8695u
   61.70000n   -6.8943u
   61.80000n  -10.9191u
   61.90000n  -20.6611u
   62.00000n  -44.6502u
   62.10000n  -68.6392u
   62.20000n  -92.6283u
   62.30000n -116.6174u
   62.40000n -138.5727u
   62.50000n -159.5989u
   62.60000n -180.6252u
   62.70000n -201.6515u
   62.80000n   -1.8432m
   62.90000n  -10.2988m
   63.00000n   -6.9896m
   63.10000n  852.8636m
   63.20000n  996.8151m
   63.30000n  999.9804m
   63.40000n  999.9360m
   63.50000n  999.9762m
   63.60000n  999.9950m
   63.70000n  999.9891m
   63.80000n  999.9838m
   63.90000n  999.9903m
   64.00000n  999.9969m
   64.10000n    1.0000
   64.20000n    1.0000
   64.30000n    1.0000
   64.40000n  999.9988m
   64.50000n  999.9963m
   64.60000n  999.9939m
   64.70000n  999.9919m
   64.80000n  999.9932m
   64.90000n  999.9946m
   65.00000n  999.9959m
   65.10000n  999.9973m
   65.20000n  999.9986m
   65.30000n 1000.0000m
   65.40000n    1.0000
   65.50000n    1.0000
   65.60000n    1.0000
   65.70000n    1.0000
   65.80000n    1.0000
   65.90000n    1.0000
   66.00000n    1.0000
   66.10000n    1.0000
   66.20000n    1.0000
   66.30000n    1.0000
   66.40000n    1.0000
   66.50000n  999.9994m
   66.60000n  999.9985m
   66.70000n  999.9975m
   66.80000n  999.9966m
   66.90000n  999.9957m
   67.00000n  999.9948m
   67.10000n  999.9939m
   67.20000n  999.9946m
   67.30000n  999.9959m
   67.40000n  999.9973m
   67.50000n  999.9986m
   67.60000n 1000.0000m
   67.70000n    1.0000
   67.80000n    1.0000
   67.90000n    1.0000
   68.00000n    1.0000
   68.10000n    1.0001
   68.20000n    1.0000
   68.30000n  999.9833m
   68.40000n  999.9601m
   68.50000n  999.9834m
   68.60000n    1.0000
   68.70000n    1.0000
   68.80000n    1.0001
   68.90000n    1.0001
   69.00000n    1.0001
   69.10000n    1.0001
   69.20000n  999.8352m
   69.30000n  999.6157m
   69.40000n    1.0008
   69.50000n    1.0041
   69.60000n    1.0186
   69.70000n    1.0456
   69.80000n  532.1140m
   69.90000n    3.6722m
   70.00000n  999.6400u
   70.10000n  352.2293u
   70.20000n  130.2061u
   70.30000n   38.8457u
   70.40000n   11.1915u
   70.50000n    5.2825u
   70.60000n    2.5256u
   70.70000n    2.1209u
   70.80000n    1.7161u
   70.90000n    1.4047u
   71.00000n    1.1324u
   71.10000n  860.1167n
   71.20000n  587.8160n
   71.30000n  344.1719n
   71.40000n  394.7751n
   71.50000n  445.3782n
   71.60000n  495.9814n
   71.70000n  546.5845n
   71.80000n  597.1876n
   71.90000n  647.7908n
   72.00000n  698.3939n
   72.10000n  748.9971n
   72.20000n  799.6002n
   72.30000n  738.0277n
   72.40000n  635.6628n
   72.50000n  533.2979n
   72.60000n  430.9330n
   72.70000n  328.5681n
   72.80000n  226.2031n
   72.90000n  123.8382n
   73.00000n   21.4733n
   73.10000n  -80.8916n
   73.20000n -183.2565n
   73.30000n -285.6214n
   73.40000n -387.9863n
   73.50000n -490.3513n
   73.60000n -473.7264n
   73.70000n -384.4243n
   73.80000n -295.1221n
   73.90000n -205.8200n
   74.00000n -116.5178n
   74.10000n  -27.2157n
   74.20000n   62.0865n
   74.30000n  151.3886n
   74.40000n  240.6908n
   74.50000n  329.9929n
   74.60000n  419.2951n
   74.70000n  508.5972n
   74.80000n  597.8994n
   74.90000n  687.2015n
   75.00000n  776.5037n
   75.10000n  -54.2420u
   75.20000n  -19.9536u
   75.30000n   -8.3055u
   75.40000n    3.3427u
   75.50000n    9.2845u
   75.60000n   -4.2862u
   75.70000n  -17.8568u
   75.80000n  -31.4274u
   75.90000n  -44.9981u
   76.00000n  -79.1389u
   76.10000n -118.9773u
   76.20000n  -99.3824u
   76.30000n  -21.6467u
   76.40000n   56.0890u
   76.50000n  133.8246u
   76.60000n -229.4361u
   76.70000n -596.1778u
   76.80000n   -4.7035m
   76.90000n  -27.1861m
   77.00000n  334.6665m
   77.10000n  977.0325m
   77.20000n  999.2122m
   77.30000n  999.9613m
   77.40000n  999.9576m
   77.50000n  999.9711m
   77.60000n  999.9889m
   77.70000n  999.9954m
   77.80000n  999.9943m
   77.90000n  999.9931m
   78.00000n  999.9940m
   78.10000n  999.9956m
   78.20000n  999.9973m
   78.30000n  999.9989m
   78.40000n 1000.0000m
   78.50000n  999.9997m
   78.60000n  999.9995m
   78.70000n  999.9992m
   78.80000n  999.9990m
   78.90000n  999.9987m
   79.00000n  999.9984m
   79.10000n  999.9982m
   79.20000n  999.9980m
   79.30000n  999.9982m
   79.40000n  999.9984m
   79.50000n  999.9987m
   79.60000n  999.9989m
   79.70000n  999.9991m
   79.80000n  999.9994m
   79.90000n  999.9996m
   80.00000n  999.9998m
   80.10000n    1.0000
   80.20000n    1.0000
   80.30000n    1.0000
   80.40000n    1.0000
   80.50000n    1.0000
   80.60000n    1.0000
   80.70000n    1.0000
   80.80000n    1.0000
   80.90000n    1.0000
   81.00000n    1.0000
   81.10000n 1000.0000m
   81.20000n  999.9999m
   81.30000n  999.9998m
   81.40000n  999.9997m
   81.50000n  999.9996m
   81.60000n  999.9995m
   81.70000n  999.9994m
   81.80000n  999.9993m
   81.90000n  999.9992m
   82.00000n  999.9991m
   82.10000n    1.0000
   82.20000n    1.0000
   82.30000n  999.9986m
   82.40000n  999.9943m
   82.50000n  999.9902m
   82.60000n  999.9931m
   82.70000n  999.9961m
   82.80000n  999.9991m
   82.90000n    1.0000
   83.00000n  999.9353m
   83.10000n  999.8685m
   83.20000n  999.8033m
   83.30000n  999.9322m
   83.40000n  999.6824m
   83.50000n  999.5640m
   83.60000n    1.0143
   83.70000n    1.0505
   83.80000n  575.3023m
   83.90000n    4.1440m
   84.00000n    1.2750m
   84.10000n  514.4129u
   84.20000n  194.7783u
   84.30000n   83.3150u
   84.40000n   21.2899u
   84.50000n   10.2584u
   84.60000n -773.0875n
   84.70000n -777.1876n
   84.80000n  162.9103n
   84.90000n    1.0470u
   85.00000n  586.8629n
   85.10000n  126.7389n
   85.20000n -333.3852n
   85.30000n -793.5092n
   85.40000n   -1.2388u
   85.50000n   -1.0124u
   85.60000n -786.0857n
   85.70000n -559.7313n
   85.80000n -333.3768n
   85.90000n -107.0224n
   86.00000n  119.3320n
   86.10000n  345.6864n
   86.20000n  572.0408n
   86.30000n  798.3953n
   86.40000n    1.0247u
   86.50000n    1.2511u
   86.60000n    1.3274u
   86.70000n    1.1428u
   86.80000n  958.1511n
   86.90000n  773.5377n
   87.00000n  588.9242n
   87.10000n  404.3108n
   87.20000n  219.6973n
   87.30000n   35.0839n
   87.40000n -149.5296n
   87.50000n -334.1430n
   87.60000n -518.7565n
   87.70000n -703.3699n
   87.80000n -887.9834n
   87.90000n   -1.0726u
   88.00000n   -1.2572u
   88.10000n   -1.3203u
   88.20000n   -1.0147u
   88.30000n -709.1205n
   88.40000n -403.5479n
   88.50000n  -97.9754n
   88.60000n  207.5972n
   88.70000n  513.1697n
   88.80000n  818.7423n
   88.90000n    1.1243u
   89.00000n    1.4299u
   89.10000n  -71.0296u
   89.20000n  -38.8391u
   89.30000n  -12.4548u
   89.40000n   12.6541u
   89.50000n    4.0065u
   89.60000n   -4.6410u
   89.70000n  -13.2886u
   89.80000n  -20.1589u
   89.90000n  -29.9913u
   90.00000n  -56.1855u
   90.10000n  -38.6038u
   90.20000n   -7.0892u
   90.30000n   58.7665u
   90.40000n  198.3068u
   90.50000n  238.0107u
   90.60000n  -64.1483u
   90.70000n   -1.0176m
   90.80000n -426.4993u
   90.90000n   99.3503u
   91.00000n  279.2239u
   91.10000n  359.8820u
   91.20000n  230.0928u
   91.30000n  123.0649u
   91.40000n   74.9604u
   91.50000n   30.2988u
   91.60000n   22.3179u
   91.70000n   18.5038u
   91.80000n   14.6897u
   91.90000n   10.4968u
   92.00000n    6.2465u
   92.10000n    1.9961u
   92.20000n   -2.2542u
   92.30000n   -3.7573u
   92.40000n   -2.0042u
   92.50000n -251.0933n
   92.60000n    1.5020u
   92.70000n    3.2551u
   92.80000n    5.0082u
   92.90000n    6.7613u
   93.00000n    7.2042u
   93.10000n    6.0035u
   93.20000n    4.8027u
   93.30000n    3.6019u
   93.40000n    2.4011u
   93.50000n    1.2003u
   93.60000n -499.2205p
   93.70000n   -1.2013u
   93.80000n   -2.4021u
   93.90000n   -3.6029u
   94.00000n   -4.8037u
   94.10000n   -6.0045u
   94.20000n   -6.1273u
   94.30000n   -5.2751u
   94.40000n   -4.4228u
   94.50000n   -3.5706u
   94.60000n   -2.7183u
   94.70000n   -1.8661u
   94.80000n   -1.0139u
   94.90000n -161.6270n
   95.00000n  690.6103n
   95.10000n    1.5428u
   95.20000n    2.3951u
   95.30000n    3.2473u
   95.40000n    4.0996u
   95.50000n    4.9518u
   95.60000n    5.8040u
   95.70000n    6.6563u
   95.80000n    4.3903u
   95.90000n   -1.0699u
   96.00000n   -6.5301u
   96.10000n  321.0450u
   96.20000n  102.0376u
   96.30000n  112.8911u
   96.40000n  125.8969u
   96.50000n  114.8717u
   96.60000n  100.7146u
   96.70000n  130.5871u
   96.80000n  130.7662u
   96.90000n  -11.2945u
   97.00000n -605.3385u
   97.10000n   -2.6181m
   97.20000n  -15.1710m
   97.30000n   65.4890m
   97.40000n  656.4875m
   97.50000n  985.8171m
   97.60000n  994.9956m
   97.70000n  994.7764m
   97.80000n  997.2974m
   97.90000n  999.2073m
   98.00000n  999.8258m
   98.10000n  999.5265m
   98.20000n  999.9052m
   98.30000n  999.9479m
   98.40000n  999.9650m
   98.50000n  999.9781m
   98.60000n  999.9837m
   98.70000n  999.9859m
   98.80000n  999.9882m
   98.90000n  999.9904m
   99.00000n  999.9917m
   99.10000n  999.9926m
   99.20000n  999.9936m
   99.30000n  999.9946m
   99.40000n  999.9956m
   99.50000n  999.9966m
   99.60000n  999.9976m
   99.70000n  999.9978m
   99.80000n  999.9979m
   99.90000n  999.9980m
  100.00000n  999.9980m
  100.10000n  999.9981m
  100.20000n  999.9982m
  100.30000n  999.9982m
  100.40000n  999.9983m
  100.50000n  999.9984m
  100.60000n  999.9984m
  100.70000n  999.9985m
  100.80000n  999.9986m
  100.90000n  999.9987m
  101.00000n  999.9988m
  101.10000n  999.9989m
  101.20000n  999.9990m
  101.30000n  999.9991m
  101.40000n  999.9992m
  101.50000n  999.9993m
  101.60000n  999.9994m
  101.70000n  999.9995m
  101.80000n  999.9996m
  101.90000n  999.9997m
  102.00000n  999.9998m
  102.10000n  999.9998m
  102.20000n  999.9998m
  102.30000n  999.9998m
  102.40000n  999.9998m
  102.50000n  999.9997m
  102.60000n  999.9997m
  102.70000n  999.9997m
  102.80000n  999.9997m
  102.90000n  999.9997m
  103.00000n  999.9997m
  103.10000n  999.9996m
  103.20000n  999.9996m
  103.30000n  999.9996m
  103.40000n  999.9996m
  103.50000n  999.9996m
  103.60000n  999.9996m
  103.70000n  999.9996m
  103.80000n  999.9995m
  103.90000n  999.9995m
  104.00000n  999.9995m
  104.10000n  999.9996m
  104.20000n  999.9996m
  104.30000n  999.9996m
  104.40000n  999.9996m
  104.50000n  999.9996m
  104.60000n  999.9997m
  104.70000n  999.9997m
  104.80000n  999.9997m
  104.90000n  999.9997m
  105.00000n  999.9997m
  105.10000n  999.9998m
  105.20000n  999.9998m
  105.30000n  999.9998m
  105.40000n  999.9998m
  105.50000n  999.9998m
  105.60000n  999.9999m
  105.70000n  999.9999m
  105.80000n  999.9999m
  105.90000n  999.9999m
  106.00000n  999.9999m
  106.10000n 1000.0000m
  106.20000n 1000.0000m
  106.30000n    1.0000
  106.40000n    1.0000
  106.50000n    1.0000
  106.60000n    1.0000
  106.70000n    1.0000
  106.80000n    1.0000
  106.90000n    1.0000
  107.00000n    1.0000
  107.10000n    1.0000
  107.20000n    1.0000
  107.30000n    1.0000
  107.40000n    1.0000
  107.50000n 1000.0000m
  107.60000n 1000.0000m
  107.70000n 1000.0000m
  107.80000n 1000.0000m
  107.90000n 1000.0000m
  108.00000n  999.9999m
  108.10000n  999.9999m
  108.20000n  999.9999m
  108.30000n  999.9999m
  108.40000n  999.9999m
  108.50000n  999.9999m
  108.60000n  999.9999m
  108.70000n  999.9999m
  108.80000n  999.9999m
  108.90000n  999.9999m
  109.00000n  999.9999m
  109.10000n  999.9998m
  109.20000n  999.9998m
  109.30000n  999.9998m
  109.40000n  999.9998m
  109.50000n  999.9998m
  109.60000n  999.9998m
  109.70000n  999.9998m
  109.80000n  999.9998m
  109.90000n  999.9998m
  110.00000n  999.9998m
  110.10000n  999.6374m
  110.20000n  999.8286m
  110.30000n  999.8537m
  110.40000n  999.8593m
  110.50000n  999.8650m
  110.60000n  999.8706m
  110.70000n  999.8589m
  110.80000n  999.7559m
  110.90000n  999.6530m
  111.00000n  999.5500m
  111.10000n  999.8673m
  111.20000n    1.0008
  111.30000n    1.0046
  111.40000n    1.0143
  111.50000n    1.0250
  111.60000n    1.0096
  111.70000n  885.8429m
  111.80000n  531.8224m
  111.90000n   76.5896m
  112.00000n    4.6852m
  112.10000n    2.2618m
  112.20000n    1.1071m
  112.30000n  567.5473u
  112.40000n  243.8588u
  112.50000n  140.1610u
  112.60000n   48.5663u
  112.70000n   31.9232u
  112.80000n   15.2800u
  112.90000n    9.1160u
  113.00000n    4.2040u
  113.10000n -707.9836n
  113.20000n  -73.4889n
  113.30000n    1.0624u
  113.40000n    2.1983u
  113.50000n    3.3342u
  113.60000n    3.8223u
  113.70000n    3.1650u
  113.80000n    2.5076u
  113.90000n    1.8502u
  114.00000n    1.1929u
  114.10000n  535.5346n
  114.20000n -121.8209n
  114.30000n -779.1764n
  114.40000n   -1.4365u
  114.50000n   -1.8165u
  114.60000n   -1.5466u
  114.70000n   -1.2767u
  114.80000n   -1.0067u
  114.90000n -736.7876n
  115.00000n -466.8489n
  115.10000n -196.9103n
  115.20000n   73.0284n
  115.30000n  342.9671n
  115.40000n  612.9057n
  115.50000n  882.8444n
  115.60000n    1.1528u
  115.70000n    1.4227u
  115.80000n    1.6927u
  115.90000n    1.9626u
  116.00000n    2.2325u
  116.10000n    2.4652u
  116.20000n    1.9699u
  116.30000n    1.4746u
  116.40000n  979.3626n
  116.50000n  484.0770n
  116.60000n  -11.2086n
  116.70000n -506.4942n
  116.80000n   -1.0018u
  116.90000n   -1.4971u
  117.00000n   -1.9924u
y
 tdelay=   1.2220n  targ=  14.2220n   trig=  13.0000n
 tdelay1=   1.0173n  targ=  28.0173n   trig=  27.0000n
 tdelay2=   1.0733n  targ=  42.0733n   trig=  41.0000n
 tdelay3= 885.4790p  targ=  55.8855n   trig=  55.0000n
 tdelay4= 802.6349p  targ=  69.8026n   trig=  69.0000n
 tdelay5= 806.1730p  targ=  83.8062n   trig=  83.0000n
 tdelay6= 379.6536p  targ=  97.3797n   trig=  97.0000n
 tdelay7= 806.8425p  targ= 111.8068n   trig= 111.0000n
 tdelay8=   1.0267n  targ=  14.0267n   trig=  13.0000n
 tdelay9= 816.5509p  targ=  27.8166n   trig=  27.0000n
 tdelay10= 868.8957p  targ=  41.8689n   trig=  41.0000n
 tdelay11= 645.4256p  targ=  55.6454n   trig=  55.0000n
 tdelay12= 580.6965p  targ=  69.5807n   trig=  69.0000n
 tdelay13= 604.9642p  targ=  83.6050n   trig=  83.0000n
 tdelay14= 468.5418p  targ=  97.4685n   trig=  97.0000n
 tdelay15= 724.0501p  targ= 111.7241n   trig= 111.0000n

          ***** job concluded
 ******
 **full adder

 ****** job statistics summary tnom=  25.000 temp=  25.000 ******

 ******  Machine Information  ******
 CPU:
 model name     : Intel(R) Xeon(R) CPU           E5620  @ 2.40GHz
 cpu MHz        : 1596.000

 OS:
 Linux version 2.6.32-696.30.1.el6.x86_64 (mockbuild@c1bl.rdu2.centos.org) (gcc version 4.4.7 20120313 (Red Hat 4.4.7-18) (GCC) ) #1 SMP Tue May 22 03:28:18 UTC 2018


  ******  HSPICE Threads Information  ******

  Command Line Threads Count :     1
  Available CPU Count        :    16
  Actual Threads Count       :     1


  ******  Circuit Statistics  ******
  # nodes       =      75 # elements   =      34
  # resistors   =       0 # capacitors =       2 # inductors   =       0
  # mutual_inds =       0 # vccs       =       0 # vcvs        =       0
  # cccs        =       0 # ccvs       =       0 # volt_srcs   =       4
  # curr_srcs   =       0 # diodes     =       0 # bjts        =       0
  # jfets       =       0 # mosfets    =      28 # U elements  =       0
  # T elements  =       0 # W elements =       0 # B elements  =       0
  # S elements  =       0 # P elements =       0 # va device   =       0
  # vector_srcs =       0 # N elements =       0


  ******  Runtime Statistics (seconds)  ******

  analysis           time    # points   tot. iter  conv.iter
  op point           0.00           1          20
  transient          0.18        1171        1858         613 rev=       125
  readin             0.01
  errchk             0.01
  setup              0.00
  output             0.00


           peak memory used        359.17 megabytes
           total cpu time            0.34 seconds
           total elapsed time        0.61 seconds
           job started at     01:17:19 11/27/2023
           job ended   at     01:17:20 11/27/2023

>info:         ***** hspice job concluded
           job total runtime         0.61 seconds


 lic: Release hspice token(s)
 lic: total license checkout elapse time:        0.27(s)
