 ****** HSPICE -- Q-2020.03 linux64 (Mar  8 2020) ******
  Copyright (c) 1986 - 2023 by Synopsys, Inc. All Rights Reserved.
  This software and the associated documentation are proprietary
  to Synopsys, Inc. This software may only be used in accordance
  with the terms and conditions of a written license agreement with
  Synopsys, Inc. All other use, reproduction, or distribution of
  this software is strictly prohibited.
  Input File: HW3.sp
  Command line options: /usr/cad/synopsys/hspice/cur/hspice/linux64/hspice -i HW3.sp
  Start time: Mon Nov 27 01:02:47 2023
 lic:
 lic: FLEXlm: SDK_12.6
 lic: USER:   110501539            HOSTNAME: ares-athena
 lic: HOSTID: "e61f13c2e205"       PID:      17123
 lic: Using FLEXlm license file:
 lic: 26585@lshc
 lic: Checkout 1 hspice
 lic: License/Maintenance for hspice will expire on 31-mar-2024/2023.03
 lic: 131(in_use)/900(total) FLOATING license(s) on SERVER 26585@lshc
 lic:
  **warning** (HW3.sp:4) Global net name "gnd" in subckt pin list. The pin will be connected to the local net. Recommend to not use global net names in subckt pin lists.
1****** HSPICE -- Q-2020.03 linux64 (Mar  8 2020) ******
 ******
 **3bit ripple carry adder

 ****** circuit name directory
 circuit number to circuit name directory
   number circuitname                     definition         multiplier
        0 main circuit
        1 xadder1.                        adder              1.00
        2 xadder2.                        adder              1.00
        3 xadder3.                        adder              1.00
  **info** (HW3.sp:54) DC voltage reset to initial transient source value in source 0:vci0. new dc=0.0000D+00
 ***************************************************************************
 ***        model parameters  model name:   0:p_18.1   model type:pmos   ***
 ***************************************************************************

   *** general parameters ***
    deriv=   0.

   ***  level 49  model parameters  ***

      hspver=    2006.03               level=         49
     version=        3.2            paramchk=          0
      apwarn=          1                lite=          0
      vgslim=          0             binUnit=          1
      capMod=          2               xpart=          1
      mobMod=          3              nqsMod=          0
      stiMod=          0                 elm=          5
    sfvtflag=          0                 tox=    4.2e-09 meter
          xj=      1e-07 meter       binflag=          0
        lmin=    1.8e-07 meter          lmax=      5e-05 meter
        wmin=    2.5e-07 meter          wmax=     0.0001 meter
        lref=          0 meter          wref=          0 meter
        lint= -1.041e-08 meter          wint= -1.525e-07 meter
       lmult=          1               wmult=          1
          ll=  6.635e-15                 lln=          1
          lw= -2.873e-16                 lwn=          1
         lwl=          0                  wl=          0
         wln=          1                  ww=  1.236e-14
         wwn=          1                 wwl=          0
         dwg= -1.251e-07 m/V             dwb= -1.039e-07 m/V^1/2
          xl=     -2e-09                  xw=          0
          a0=       1.35                 ags=     0.3818 V^-1
          b0= -3.088e-07 meter            b1=          0 meter
        keta=    0.01044 V^-1           voff=    -0.1073 V
       ngate=      1e+23 cm^-3           vbx=          0 V
         vbm=         -3 V                xt=   1.55e-07 meter
        vth0=    -0.4555 V               nch=  6.231e+17 cm^-3
        nsub=      6e+16 cm^-3           nlx=   2.53e-07 meter
      gamma1=          0 V^-1/2       gamma2=          0 V^-1/2
          k1=     0.5704 V^1/2            k2=   0.006973
          k3=     -2.833                 k3b=      1.326 V^-1
          w0= -1.943e-07 meter          dvt0=     0.4885
        dvt1=    0.07578                dvt2=     0.1187 V^-1
       dvt0w=    -0.1261 meter^-1      dvt1w=      24790 meter^-1
       dvt2w=     0.6915 V^-1           dsub=     1.9191
        eta0=      1.071                etab=    -0.9291 V^-1
          u0=      124.5 cm^2/V/sec         ua=   1.54e-09 m/V
          ub=  2.646e-19 (m/V)^2          uc=   -0.09587 V^-1
        vsat=      53400 m/sec            a1=          0 v^-1
          a2=          1               delta=       0.01 V
        rdsw=      792.1 ohm-um         prwg=          0 V^-1
        prwb=          0 V^-1/2           wr=          1
        pclm=      2.653             pdiblc1=          0
     pdiblc2=      5e-06             pdiblcb=          0 V^-1
      pscbe1=  4.866e+08 V/m          pscbe2=    2.8e-07 V/m
       drout=      1.457                pvag=      1.262
     nfactor=      1.535                cdsc=  0.0007578 f/m^2
       cdscb=     0.0001 f/V/m^2       cdscd= -2.883e-05 f/V/m^2
         cit=  -0.001067 f/m^2        alpha0=          0 m/V
       beta0=         30 V               dlc=   7.01e-08 meter
         dwc=          0 meter           clc=      1e-07 meter
         cle=        0.6                cgso=  2.054e-10 f/m
        cgdo=  2.054e-10 f/m            cgbo=          0 f/m
        cgsl=          0 f/m            cgdl=          0 f/m
      ckappa=        0.6                  cf=  1.533e-10 f/m
        acde=          1 m/V            moin=         15 V^1/2
        toxm=    4.2e-09 m            dtoxcv=          0 m
         vfb (not used)                alpha1=          0 1/V
        ijth=          0 A              noff=          1
      voffcv=          0                 tcj=          0 1/K
       tcjsw=          0 1/K          tcjswg=          0 1/K
         tpb=          0 V/K           tpbsw=          0 V/K
      tpbswg=          0 V/K             llc=  -1.31e-14
         lwc=          0                lwlc=          0
         wlc=          0                 wwc=          0
        wwlc=          0                tnom=     298.15 K
         kt1=    -0.2294 V              kt1l= -8.204e-09
         kt2=  -0.009487                 ute=    -0.4484
         ua1=  4.571e-09 m/V             ub1= -6.026e-18 (m/V)^2
         uc1=    -0.0985 m/V^2            at=      12030 m/s
         prt=          0
         using Berkeley noise model       noiMod=          1
        noia=      1e+20                noib=      50000
        noic=   -1.4e-12                  em=    4.2e+07
          ef=          1                  af=          1
          kf=          0              gdsnoi=-1.23457e-29
         using Hspice diodes            using ACM
         acm=         3                 hdif=   2.6e-07 meter
        ldif=     8e-08 meter             js=     3e-06 amp/m^2
         jsw=  4.22e-11 amp/m            xti=         3
           n=         1                   cj=   0.00124 f/m^2
          mj=     0.395                   pb=     0.762 V
        cjsw=  1.74e-10 f/m             mjsw=     0.324
         php=     0.665 V               pbsw (not used)
      cjgate=  1.74e-10 f/m            cjswg (not used)
       mjswg (not used)                 pbswg (not used)
         la0=     -0.281                lags=    0.04454
       lketa=     -0.012               lvoff= -0.0009871
       lvth0=     0.0044                lnlx= -1.584e-08
         lua= -8.253e-11            lpdiblc2=   0.003012
         wa0=   -0.04807                wags=   -0.04277
       wvoff=  -0.009816               wvth0=    -0.0148
         wua=   2.63e-09               wvsat=     -14200
       wrdsw=      10.07                wute=    -0.2682
         wat=      -6405                wprt=      226.6
         pa0=    0.08661                pags=   -0.04076
       pvoff= -9.833e-05               pvth0=     0.0032
         pua=  5.855e-11               pvsat=       -434
 ***************************************************************************
 ***        model parameters  model name:   0:n_18.1   model type:nmos   ***
 ***************************************************************************

   *** general parameters ***
    deriv=   0.

   ***  level 49  model parameters  ***

      hspver=    2006.03               level=         49
     version=        3.2            paramchk=          0
      apwarn=          1                lite=          0
      vgslim=          0             binUnit=          1
      capMod=          2               xpart=          1
      mobMod=          1              nqsMod=          0
      stiMod=          0                 elm=          5
    sfvtflag=          0                 tox=    4.2e-09 meter
          xj=    1.6e-07 meter       binflag=          0
        lmin=    1.8e-07 meter          lmax=      5e-05 meter
        wmin=    2.5e-07 meter          wmax=     0.0001 meter
        lref=          0 meter          wref=          0 meter
        lint=  1.587e-08 meter          wint=  1.022e-08 meter
       lmult=          1               wmult=          1
          ll= -1.062e-15                 lln=          1
          lw=  2.996e-15                 lwn=          1
         lwl=          0                  wl=          0
         wln=          1                  ww=  7.262e-16
         wwn=          1                 wwl=          0
         dwg= -3.396e-09 m/V             dwb=  1.346e-09 m/V^1/2
          xl=  -1.05e-08                  xw=          0
          a0=       1.93                 ags=     0.5072 V^-1
          b0=  1.486e-06 meter            b1=  9.064e-06 meter
        keta=    0.01752 V^-1           voff=    -0.1088 V
       ngate=      1e+23 cm^-3           vbx=          0 V
         vbm=         -3 V                xt=   1.55e-07 meter
        vth0=     0.3075 V               nch= 3.7446e+17 cm^-3
        nsub=      6e+16 cm^-3           nlx=  4.279e-07 meter
      gamma1=          0 V^-1/2       gamma2=          0 V^-1/2
          k1=     0.4578 V^1/2            k2=   -0.02638
          k3=     -10.88                 k3b=     0.2379 V^-1
          w0= -8.813e-08 meter          dvt0=     0.4042
        dvt1=     0.3237                dvt2=    -0.8602 V^-1
       dvt0w=      0.383 meter^-1      dvt1w=     600000 meter^-1
       dvt2w=     -0.025 V^-1           dsub=   0.001592
        eta0=   0.001004                etab=  -0.001459 V^-1
          u0=      324.1 cm^2/V/sec         ua= -9.201e-10 m/V
          ub=  1.907e-18 (m/V)^2          uc=  4.355e-11 V^-1
        vsat=      72580 m/sec            a1=          0 v^-1
          a2=          1               delta=       0.01 V
        rdsw=      4.905 ohm-um         prwg=          0 V^-1
        prwb=          0 V^-1/2           wr=          1
        pclm=      1.091             pdiblc1=   0.003061
     pdiblc2=      1e-06             pdiblcb=          0 V^-1
      pscbe1=  4.866e+08 V/m          pscbe2=    2.8e-07 V/m
       drout=   0.001592                pvag=    -0.2958
     nfactor=      1.038                cdsc=   0.002275 f/m^2
       cdscb=  0.0008241 f/V/m^2       cdscd=    -0.0005 f/V/m^2
         cit=  -0.001511 f/m^2        alpha0=          0 m/V
       beta0=         30 V               dlc=      4e-08 meter
         dwc=          0 meter           clc=      1e-07 meter
         cle=        0.6                cgso=   2.35e-10 f/m
        cgdo=   2.35e-10 f/m            cgbo=          0 f/m
        cgsl=          0 f/m            cgdl=          0 f/m
      ckappa=        0.6                  cf=  1.533e-10 f/m
        acde=          1 m/V            moin=         15 V^1/2
        toxm=    4.2e-09 m            dtoxcv=          0 m
         vfb (not used)                alpha1=          0 1/V
        ijth=          0 A              noff=          1
      voffcv=          0                 tcj=          0 1/K
       tcjsw=          0 1/K          tcjswg=          0 1/K
         tpb=          0 V/K           tpbsw=          0 V/K
      tpbswg=          0 V/K             llc=  -6.64e-15
         lwc=          0                lwlc=          0
         wlc=          0                 wwc=          0
        wwlc=          0                tnom=     298.15 K
         kt1=    -0.2255 V              kt1l= -4.275e-09
         kt2=   -0.02527                 ute=     -1.186
         ua1=  2.253e-09 m/V             ub1= -2.673e-18 (m/V)^2
         uc1= -3.832e-11 m/V^2            at=      14490 m/s
         prt=     -10.18
         using Berkeley noise model       noiMod=          1
        noia=      1e+20                noib=      50000
        noic=   -1.4e-12                  em=    4.2e+07
          ef=          1                  af=          1
          kf=          0              gdsnoi=-1.23457e-29
         using Hspice diodes            using ACM
         acm=         3                 hdif=   2.6e-07 meter
        ldif=     8e-08 meter             js=     1e-06 amp/m^2
         jsw=     7e-11 amp/m            xti=         3
           n=         1                   cj=   0.00103 f/m^2
          mj=     0.443                   pb=     0.823 V
        cjsw=  1.34e-10 f/m             mjsw=      0.33
         php=      0.88 V               pbsw (not used)
      cjgate=     5e-10 f/m            cjswg (not used)
       mjswg (not used)                 pbswg (not used)
         la0=    -0.4667                lags=     0.3028
       lketa=   -0.01942               lvoff=  -0.004208
       lvth0=     -0.001                lnlx= -2.854e-08
       leta0=   0.001574            lpdiblc2=  -0.004752
         wa0=   -0.04731                wags=   0.004242
       wvoff= -0.0004078               wvth0=    0.06027
         wu0=       0.54                 wua=  -1.88e-11
       wvsat=       5066                wute=    0.06373
         wat=       7067                 pa0=   -0.02649
       pvoff= -0.0003788                 pw0=    1.3e-09
         pub=    3.8e-20




 **info** set option symb=1 internally to help for convergence.
 *****************************************************************
 ******  option summary
 ******
 runlvl  = 3         bypass  = 2.0000
  Opening plot unit= 15
 file=HW3.pa0

 **info** dc convergence successful at Newton-Raphson method
 ******
 **3bit ripple carry adder

 ****** operating point information tnom=  25.000 temp=  25.000 ******
 ****** operating point status is voltage   simulation time is     0.
    node    =voltage      node    =voltage      node    =voltage

 +0:ci0     =   0.      0:ci1     =   1.0000  0:ci2     =   1.0000
 +0:cout    =   1.0000  0:s0      =   9.0198n 0:s1      =   1.0000
 +0:s2      =   1.0000  0:vdd     =   1.0000  0:x0      =   1.0000
 +0:x1      =   1.0000  0:x2      =   1.0000  0:y0      =   1.0000
 +0:y1      =   1.0000  0:y2      =   1.0000  1:n1      =  56.6657m
 +1:n10     =   3.1563n 1:n11     =  12.6252n 1:n12     =   6.3126n
 +1:n2      =  28.3297m 1:n3      =  35.0420n 1:n4      =   1.1767f
 +1:n5      =  17.5210n 1:n6      =   1.0000  1:n7      = 999.9991m
 +1:n8      = 999.9999m 1:n9      = 999.9999m 2:n1      = 967.4909m
 +2:n10     =   1.7529f 2:n11     =  52.2018n 2:n12     =  26.1009n
 +2:n2      = 911.6765m 2:n3      =   5.3826n 2:n4      =   1.7942n
 +2:n5      =   2.6913n 2:n6      =  69.8590m 2:n7      =  46.5635m
 +2:n8      =  23.2786m 2:n9      =  78.3027n 3:n1      = 967.4905m
 +3:n10     =   1.7529f 3:n11     =  52.2018n 3:n12     =  26.1009n
 +3:n2      = 911.6715m 3:n3      =   5.3825n 3:n4      =   1.7942n
 +3:n5      =   2.6912n 3:n6      =  69.8590m 3:n7      =  46.5635m
 +3:n8      =  23.2786m 3:n9      =  78.3027n

 ******
 **3bit ripple carry adder

 ****** transient analysis tnom=  25.000 temp=  25.000 ******
x

 time         voltage
             x0
    0.          1.0000
  100.00000p    1.0000
  200.00000p    1.0000
  300.00000p    1.0000
  400.00000p    1.0000
  500.00000p    1.0000
  600.00000p    1.0000
  700.00000p    1.0000
  800.00000p    1.0000
  900.00000p    1.0000
    1.00000n    1.0000
    1.10000n    1.0000
    1.20000n    1.0000
    1.30000n    1.0000
    1.40000n    1.0000
    1.50000n    1.0000
    1.60000n    1.0000
    1.70000n    1.0000
    1.80000n    1.0000
    1.90000n    1.0000
    2.00000n    1.0000
    2.10000n    1.0000
    2.20000n    1.0000
    2.30000n    1.0000
    2.40000n    1.0000
    2.50000n    1.0000
    2.60000n    1.0000
    2.70000n    1.0000
    2.80000n    1.0000
    2.90000n    1.0000
    3.00000n    1.0000
    3.10000n    1.0000
    3.20000n    1.0000
    3.30000n    1.0000
    3.40000n    1.0000
    3.50000n    1.0000
    3.60000n    1.0000
    3.70000n    1.0000
    3.80000n    1.0000
    3.90000n    1.0000
    4.00000n    1.0000
    4.10000n    1.0000
    4.20000n    1.0000
    4.30000n    1.0000
    4.40000n    1.0000
    4.50000n    1.0000
    4.60000n    1.0000
    4.70000n    1.0000
    4.80000n    1.0000
    4.90000n    1.0000
    5.00000n    1.0000
    5.10000n  950.0000m
    5.20000n  900.0000m
    5.30000n  850.0000m
    5.40000n  800.0000m
    5.50000n  750.0000m
    5.60000n  700.0000m
    5.70000n  650.0000m
    5.80000n  600.0000m
    5.90000n  550.0000m
    6.00000n  500.0000m
    6.10000n  450.0000m
    6.20000n  400.0000m
    6.30000n  350.0000m
    6.40000n  300.0000m
    6.50000n  250.0000m
    6.60000n  200.0000m
    6.70000n  150.0000m
    6.80000n  100.0000m
    6.90000n   50.0000m
    7.00000n    0.
    7.10000n    0.
    7.20000n    0.
    7.30000n    0.
    7.40000n    0.
    7.50000n    0.
    7.60000n    0.
    7.70000n    0.
    7.80000n    0.
    7.90000n    0.
    8.00000n    0.
    8.10000n    0.
    8.20000n    0.
    8.30000n    0.
    8.40000n    0.
    8.50000n    0.
    8.60000n    0.
    8.70000n    0.
    8.80000n    0.
    8.90000n    0.
    9.00000n    0.
    9.10000n    0.
    9.20000n    0.
    9.30000n    0.
    9.40000n    0.
    9.50000n    0.
    9.60000n    0.
    9.70000n    0.
    9.80000n    0.
    9.90000n    0.
   10.00000n    0.
   10.10000n    0.
   10.20000n    0.
   10.30000n    0.
   10.40000n    0.
   10.50000n    0.
   10.60000n    0.
   10.70000n    0.
   10.80000n    0.
   10.90000n    0.
   11.00000n    0.
   11.10000n    0.
   11.20000n    0.
   11.30000n    0.
   11.40000n    0.
   11.50000n    0.
   11.60000n    0.
   11.70000n    0.
   11.80000n    0.
   11.90000n    0.
   12.00000n    0.
   12.10000n   50.0000m
   12.20000n  100.0000m
   12.30000n  150.0000m
   12.40000n  200.0000m
   12.50000n  250.0000m
   12.60000n  300.0000m
   12.70000n  350.0000m
   12.80000n  400.0000m
   12.90000n  450.0000m
   13.00000n  500.0000m
   13.10000n  550.0000m
   13.20000n  600.0000m
   13.30000n  650.0000m
   13.40000n  700.0000m
   13.50000n  750.0000m
   13.60000n  800.0000m
   13.70000n  850.0000m
   13.80000n  900.0000m
   13.90000n  950.0000m
   14.00000n    1.0000
   14.10000n    1.0000
   14.20000n    1.0000
   14.30000n    1.0000
   14.40000n    1.0000
   14.50000n    1.0000
   14.60000n    1.0000
   14.70000n    1.0000
   14.80000n    1.0000
   14.90000n    1.0000
   15.00000n    1.0000
   15.10000n    1.0000
   15.20000n    1.0000
   15.30000n    1.0000
   15.40000n    1.0000
   15.50000n    1.0000
   15.60000n    1.0000
   15.70000n    1.0000
   15.80000n    1.0000
   15.90000n    1.0000
   16.00000n    1.0000
   16.10000n    1.0000
   16.20000n    1.0000
   16.30000n    1.0000
   16.40000n    1.0000
   16.50000n    1.0000
   16.60000n    1.0000
   16.70000n    1.0000
   16.80000n    1.0000
   16.90000n    1.0000
   17.00000n    1.0000
   17.10000n    1.0000
   17.20000n    1.0000
   17.30000n    1.0000
   17.40000n    1.0000
   17.50000n    1.0000
   17.60000n    1.0000
   17.70000n    1.0000
   17.80000n    1.0000
   17.90000n    1.0000
   18.00000n    1.0000
   18.10000n    1.0000
   18.20000n    1.0000
   18.30000n    1.0000
   18.40000n    1.0000
   18.50000n    1.0000
   18.60000n    1.0000
   18.70000n    1.0000
   18.80000n    1.0000
   18.90000n    1.0000
   19.00000n    1.0000
   19.10000n  950.0000m
   19.20000n  900.0000m
   19.30000n  850.0000m
   19.40000n  800.0000m
   19.50000n  750.0000m
   19.60000n  700.0000m
   19.70000n  650.0000m
   19.80000n  600.0000m
   19.90000n  550.0000m
   20.00000n  500.0000m
   20.10000n  450.0000m
   20.20000n  400.0000m
   20.30000n  350.0000m
   20.40000n  300.0000m
   20.50000n  250.0000m
   20.60000n  200.0000m
   20.70000n  150.0000m
   20.80000n  100.0000m
   20.90000n   50.0000m
   21.00000n    0.
   21.10000n    0.
   21.20000n    0.
   21.30000n    0.
   21.40000n    0.
   21.50000n    0.
   21.60000n    0.
   21.70000n    0.
   21.80000n    0.
   21.90000n    0.
   22.00000n    0.
   22.10000n    0.
   22.20000n    0.
   22.30000n    0.
   22.40000n    0.
   22.50000n    0.
   22.60000n    0.
   22.70000n    0.
   22.80000n    0.
   22.90000n    0.
   23.00000n    0.
   23.10000n    0.
   23.20000n    0.
   23.30000n    0.
   23.40000n    0.
   23.50000n    0.
   23.60000n    0.
   23.70000n    0.
   23.80000n    0.
   23.90000n    0.
   24.00000n    0.
   24.10000n    0.
   24.20000n    0.
   24.30000n    0.
   24.40000n    0.
   24.50000n    0.
   24.60000n    0.
   24.70000n    0.
   24.80000n    0.
   24.90000n    0.
   25.00000n    0.
   25.10000n    0.
   25.20000n    0.
   25.30000n    0.
   25.40000n    0.
   25.50000n    0.
   25.60000n    0.
   25.70000n    0.
   25.80000n    0.
   25.90000n    0.
   26.00000n    0.
   26.10000n   50.0000m
   26.20000n  100.0000m
   26.30000n  150.0000m
   26.40000n  200.0000m
   26.50000n  250.0000m
   26.60000n  300.0000m
   26.70000n  350.0000m
   26.80000n  400.0000m
   26.90000n  450.0000m
   27.00000n  500.0000m
   27.10000n  550.0000m
   27.20000n  600.0000m
   27.30000n  650.0000m
   27.40000n  700.0000m
   27.50000n  750.0000m
   27.60000n  800.0000m
   27.70000n  850.0000m
   27.80000n  900.0000m
   27.90000n  950.0000m
   28.00000n    1.0000
   28.10000n    1.0000
   28.20000n    1.0000
   28.30000n    1.0000
   28.40000n    1.0000
   28.50000n    1.0000
   28.60000n    1.0000
   28.70000n    1.0000
   28.80000n    1.0000
   28.90000n    1.0000
   29.00000n    1.0000
   29.10000n    1.0000
   29.20000n    1.0000
   29.30000n    1.0000
   29.40000n    1.0000
   29.50000n    1.0000
   29.60000n    1.0000
   29.70000n    1.0000
   29.80000n    1.0000
   29.90000n    1.0000
   30.00000n    1.0000
   30.10000n    1.0000
   30.20000n    1.0000
   30.30000n    1.0000
   30.40000n    1.0000
   30.50000n    1.0000
   30.60000n    1.0000
   30.70000n    1.0000
   30.80000n    1.0000
   30.90000n    1.0000
   31.00000n    1.0000
   31.10000n    1.0000
   31.20000n    1.0000
   31.30000n    1.0000
   31.40000n    1.0000
   31.50000n    1.0000
   31.60000n    1.0000
   31.70000n    1.0000
   31.80000n    1.0000
   31.90000n    1.0000
   32.00000n    1.0000
   32.10000n    1.0000
   32.20000n    1.0000
   32.30000n    1.0000
   32.40000n    1.0000
   32.50000n    1.0000
   32.60000n    1.0000
   32.70000n    1.0000
   32.80000n    1.0000
   32.90000n    1.0000
   33.00000n    1.0000
   33.10000n    1.0000
   33.20000n    1.0000
   33.30000n    1.0000
   33.40000n    1.0000
   33.50000n    1.0000
   33.60000n    1.0000
   33.70000n    1.0000
   33.80000n    1.0000
   33.90000n    1.0000
   34.00000n    1.0000
   34.10000n    1.0000
   34.20000n    1.0000
   34.30000n    1.0000
   34.40000n    1.0000
   34.50000n    1.0000
   34.60000n    1.0000
   34.70000n    1.0000
   34.80000n    1.0000
   34.90000n    1.0000
   35.00000n    1.0000
   35.10000n    1.0000
   35.20000n    1.0000
   35.30000n    1.0000
   35.40000n    1.0000
   35.50000n    1.0000
   35.60000n    1.0000
   35.70000n    1.0000
   35.80000n    1.0000
   35.90000n    1.0000
   36.00000n    1.0000
   36.10000n    1.0000
   36.20000n    1.0000
   36.30000n    1.0000
   36.40000n    1.0000
   36.50000n    1.0000
   36.60000n    1.0000
   36.70000n    1.0000
   36.80000n    1.0000
   36.90000n    1.0000
   37.00000n    1.0000
   37.10000n    1.0000
   37.20000n    1.0000
   37.30000n    1.0000
   37.40000n    1.0000
   37.50000n    1.0000
   37.60000n    1.0000
   37.70000n    1.0000
   37.80000n    1.0000
   37.90000n    1.0000
   38.00000n    1.0000
   38.10000n    1.0000
   38.20000n    1.0000
   38.30000n    1.0000
   38.40000n    1.0000
   38.50000n    1.0000
   38.60000n    1.0000
   38.70000n    1.0000
   38.80000n    1.0000
   38.90000n    1.0000
   39.00000n    1.0000
   39.10000n    1.0000
   39.20000n    1.0000
   39.30000n    1.0000
   39.40000n    1.0000
   39.50000n    1.0000
   39.60000n    1.0000
   39.70000n    1.0000
   39.80000n    1.0000
   39.90000n    1.0000
   40.00000n    1.0000
   40.10000n  950.0000m
   40.20000n  900.0000m
   40.30000n  850.0000m
   40.40000n  800.0000m
   40.50000n  750.0000m
   40.60000n  700.0000m
   40.70000n  650.0000m
   40.80000n  600.0000m
   40.90000n  550.0000m
   41.00000n  500.0000m
   41.10000n  450.0000m
   41.20000n  400.0000m
   41.30000n  350.0000m
   41.40000n  300.0000m
   41.50000n  250.0000m
   41.60000n  200.0000m
   41.70000n  150.0000m
   41.80000n  100.0000m
   41.90000n   50.0000m
   42.00000n    0.
   42.10000n    0.
   42.20000n    0.
   42.30000n    0.
   42.40000n    0.
   42.50000n    0.
   42.60000n    0.
   42.70000n    0.
   42.80000n    0.
   42.90000n    0.
   43.00000n    0.
   43.10000n    0.
   43.20000n    0.
   43.30000n    0.
   43.40000n    0.
   43.50000n    0.
   43.60000n    0.
   43.70000n    0.
   43.80000n    0.
   43.90000n    0.
   44.00000n    0.
   44.10000n    0.
   44.20000n    0.
   44.30000n    0.
   44.40000n    0.
   44.50000n    0.
   44.60000n    0.
   44.70000n    0.
   44.80000n    0.
   44.90000n    0.
   45.00000n    0.
   45.10000n    0.
   45.20000n    0.
   45.30000n    0.
   45.40000n    0.
   45.50000n    0.
   45.60000n    0.
   45.70000n    0.
   45.80000n    0.
   45.90000n    0.
   46.00000n    0.
   46.10000n    0.
   46.20000n    0.
   46.30000n    0.
   46.40000n    0.
   46.50000n    0.
   46.60000n    0.
   46.70000n    0.
   46.80000n    0.
   46.90000n    0.
   47.00000n    0.
y
x

 time         voltage
             y0
    0.          1.0000
  100.00000p    1.0000
  200.00000p    1.0000
  300.00000p    1.0000
  400.00000p    1.0000
  500.00000p    1.0000
  600.00000p    1.0000
  700.00000p    1.0000
  800.00000p    1.0000
  900.00000p    1.0000
    1.00000n    1.0000
    1.10000n    1.0000
    1.20000n    1.0000
    1.30000n    1.0000
    1.40000n    1.0000
    1.50000n    1.0000
    1.60000n    1.0000
    1.70000n    1.0000
    1.80000n    1.0000
    1.90000n    1.0000
    2.00000n    1.0000
    2.10000n    1.0000
    2.20000n    1.0000
    2.30000n    1.0000
    2.40000n    1.0000
    2.50000n    1.0000
    2.60000n    1.0000
    2.70000n    1.0000
    2.80000n    1.0000
    2.90000n    1.0000
    3.00000n    1.0000
    3.10000n    1.0000
    3.20000n    1.0000
    3.30000n    1.0000
    3.40000n    1.0000
    3.50000n    1.0000
    3.60000n    1.0000
    3.70000n    1.0000
    3.80000n    1.0000
    3.90000n    1.0000
    4.00000n    1.0000
    4.10000n    1.0000
    4.20000n    1.0000
    4.30000n    1.0000
    4.40000n    1.0000
    4.50000n    1.0000
    4.60000n    1.0000
    4.70000n    1.0000
    4.80000n    1.0000
    4.90000n    1.0000
    5.00000n    1.0000
    5.10000n  950.0000m
    5.20000n  900.0000m
    5.30000n  850.0000m
    5.40000n  800.0000m
    5.50000n  750.0000m
    5.60000n  700.0000m
    5.70000n  650.0000m
    5.80000n  600.0000m
    5.90000n  550.0000m
    6.00000n  500.0000m
    6.10000n  450.0000m
    6.20000n  400.0000m
    6.30000n  350.0000m
    6.40000n  300.0000m
    6.50000n  250.0000m
    6.60000n  200.0000m
    6.70000n  150.0000m
    6.80000n  100.0000m
    6.90000n   50.0000m
    7.00000n    0.
    7.10000n    0.
    7.20000n    0.
    7.30000n    0.
    7.40000n    0.
    7.50000n    0.
    7.60000n    0.
    7.70000n    0.
    7.80000n    0.
    7.90000n    0.
    8.00000n    0.
    8.10000n    0.
    8.20000n    0.
    8.30000n    0.
    8.40000n    0.
    8.50000n    0.
    8.60000n    0.
    8.70000n    0.
    8.80000n    0.
    8.90000n    0.
    9.00000n    0.
    9.10000n    0.
    9.20000n    0.
    9.30000n    0.
    9.40000n    0.
    9.50000n    0.
    9.60000n    0.
    9.70000n    0.
    9.80000n    0.
    9.90000n    0.
   10.00000n    0.
   10.10000n    0.
   10.20000n    0.
   10.30000n    0.
   10.40000n    0.
   10.50000n    0.
   10.60000n    0.
   10.70000n    0.
   10.80000n    0.
   10.90000n    0.
   11.00000n    0.
   11.10000n    0.
   11.20000n    0.
   11.30000n    0.
   11.40000n    0.
   11.50000n    0.
   11.60000n    0.
   11.70000n    0.
   11.80000n    0.
   11.90000n    0.
   12.00000n    0.
   12.10000n    0.
   12.20000n    0.
   12.30000n    0.
   12.40000n    0.
   12.50000n    0.
   12.60000n    0.
   12.70000n    0.
   12.80000n    0.
   12.90000n    0.
   13.00000n    0.
   13.10000n    0.
   13.20000n    0.
   13.30000n    0.
   13.40000n    0.
   13.50000n    0.
   13.60000n    0.
   13.70000n    0.
   13.80000n    0.
   13.90000n    0.
   14.00000n    0.
   14.10000n    0.
   14.20000n    0.
   14.30000n    0.
   14.40000n    0.
   14.50000n    0.
   14.60000n    0.
   14.70000n    0.
   14.80000n    0.
   14.90000n    0.
   15.00000n    0.
   15.10000n    0.
   15.20000n    0.
   15.30000n    0.
   15.40000n    0.
   15.50000n    0.
   15.60000n    0.
   15.70000n    0.
   15.80000n    0.
   15.90000n    0.
   16.00000n    0.
   16.10000n    0.
   16.20000n    0.
   16.30000n    0.
   16.40000n    0.
   16.50000n    0.
   16.60000n    0.
   16.70000n    0.
   16.80000n    0.
   16.90000n    0.
   17.00000n    0.
   17.10000n    0.
   17.20000n    0.
   17.30000n    0.
   17.40000n    0.
   17.50000n    0.
   17.60000n    0.
   17.70000n    0.
   17.80000n    0.
   17.90000n    0.
   18.00000n    0.
   18.10000n    0.
   18.20000n    0.
   18.30000n    0.
   18.40000n    0.
   18.50000n    0.
   18.60000n    0.
   18.70000n    0.
   18.80000n    0.
   18.90000n    0.
   19.00000n    0.
   19.10000n   50.0000m
   19.20000n  100.0000m
   19.30000n  150.0000m
   19.40000n  200.0000m
   19.50000n  250.0000m
   19.60000n  300.0000m
   19.70000n  350.0000m
   19.80000n  400.0000m
   19.90000n  450.0000m
   20.00000n  500.0000m
   20.10000n  550.0000m
   20.20000n  600.0000m
   20.30000n  650.0000m
   20.40000n  700.0000m
   20.50000n  750.0000m
   20.60000n  800.0000m
   20.70000n  850.0000m
   20.80000n  900.0000m
   20.90000n  950.0000m
   21.00000n    1.0000
   21.10000n    1.0000
   21.20000n    1.0000
   21.30000n    1.0000
   21.40000n    1.0000
   21.50000n    1.0000
   21.60000n    1.0000
   21.70000n    1.0000
   21.80000n    1.0000
   21.90000n    1.0000
   22.00000n    1.0000
   22.10000n    1.0000
   22.20000n    1.0000
   22.30000n    1.0000
   22.40000n    1.0000
   22.50000n    1.0000
   22.60000n    1.0000
   22.70000n    1.0000
   22.80000n    1.0000
   22.90000n    1.0000
   23.00000n    1.0000
   23.10000n    1.0000
   23.20000n    1.0000
   23.30000n    1.0000
   23.40000n    1.0000
   23.50000n    1.0000
   23.60000n    1.0000
   23.70000n    1.0000
   23.80000n    1.0000
   23.90000n    1.0000
   24.00000n    1.0000
   24.10000n    1.0000
   24.20000n    1.0000
   24.30000n    1.0000
   24.40000n    1.0000
   24.50000n    1.0000
   24.60000n    1.0000
   24.70000n    1.0000
   24.80000n    1.0000
   24.90000n    1.0000
   25.00000n    1.0000
   25.10000n    1.0000
   25.20000n    1.0000
   25.30000n    1.0000
   25.40000n    1.0000
   25.50000n    1.0000
   25.60000n    1.0000
   25.70000n    1.0000
   25.80000n    1.0000
   25.90000n    1.0000
   26.00000n    1.0000
   26.10000n  950.0000m
   26.20000n  900.0000m
   26.30000n  850.0000m
   26.40000n  800.0000m
   26.50000n  750.0000m
   26.60000n  700.0000m
   26.70000n  650.0000m
   26.80000n  600.0000m
   26.90000n  550.0000m
   27.00000n  500.0000m
   27.10000n  450.0000m
   27.20000n  400.0000m
   27.30000n  350.0000m
   27.40000n  300.0000m
   27.50000n  250.0000m
   27.60000n  200.0000m
   27.70000n  150.0000m
   27.80000n  100.0000m
   27.90000n   50.0000m
   28.00000n    0.
   28.10000n    0.
   28.20000n    0.
   28.30000n    0.
   28.40000n    0.
   28.50000n    0.
   28.60000n    0.
   28.70000n    0.
   28.80000n    0.
   28.90000n    0.
   29.00000n    0.
   29.10000n    0.
   29.20000n    0.
   29.30000n    0.
   29.40000n    0.
   29.50000n    0.
   29.60000n    0.
   29.70000n    0.
   29.80000n    0.
   29.90000n    0.
   30.00000n    0.
   30.10000n    0.
   30.20000n    0.
   30.30000n    0.
   30.40000n    0.
   30.50000n    0.
   30.60000n    0.
   30.70000n    0.
   30.80000n    0.
   30.90000n    0.
   31.00000n    0.
   31.10000n    0.
   31.20000n    0.
   31.30000n    0.
   31.40000n    0.
   31.50000n    0.
   31.60000n    0.
   31.70000n    0.
   31.80000n    0.
   31.90000n    0.
   32.00000n    0.
   32.10000n    0.
   32.20000n    0.
   32.30000n    0.
   32.40000n    0.
   32.50000n    0.
   32.60000n    0.
   32.70000n    0.
   32.80000n    0.
   32.90000n    0.
   33.00000n    0.
   33.10000n   50.0000m
   33.20000n  100.0000m
   33.30000n  150.0000m
   33.40000n  200.0000m
   33.50000n  250.0000m
   33.60000n  300.0000m
   33.70000n  350.0000m
   33.80000n  400.0000m
   33.90000n  450.0000m
   34.00000n  500.0000m
   34.10000n  550.0000m
   34.20000n  600.0000m
   34.30000n  650.0000m
   34.40000n  700.0000m
   34.50000n  750.0000m
   34.60000n  800.0000m
   34.70000n  850.0000m
   34.80000n  900.0000m
   34.90000n  950.0000m
   35.00000n    1.0000
   35.10000n    1.0000
   35.20000n    1.0000
   35.30000n    1.0000
   35.40000n    1.0000
   35.50000n    1.0000
   35.60000n    1.0000
   35.70000n    1.0000
   35.80000n    1.0000
   35.90000n    1.0000
   36.00000n    1.0000
   36.10000n    1.0000
   36.20000n    1.0000
   36.30000n    1.0000
   36.40000n    1.0000
   36.50000n    1.0000
   36.60000n    1.0000
   36.70000n    1.0000
   36.80000n    1.0000
   36.90000n    1.0000
   37.00000n    1.0000
   37.10000n    1.0000
   37.20000n    1.0000
   37.30000n    1.0000
   37.40000n    1.0000
   37.50000n    1.0000
   37.60000n    1.0000
   37.70000n    1.0000
   37.80000n    1.0000
   37.90000n    1.0000
   38.00000n    1.0000
   38.10000n    1.0000
   38.20000n    1.0000
   38.30000n    1.0000
   38.40000n    1.0000
   38.50000n    1.0000
   38.60000n    1.0000
   38.70000n    1.0000
   38.80000n    1.0000
   38.90000n    1.0000
   39.00000n    1.0000
   39.10000n    1.0000
   39.20000n    1.0000
   39.30000n    1.0000
   39.40000n    1.0000
   39.50000n    1.0000
   39.60000n    1.0000
   39.70000n    1.0000
   39.80000n    1.0000
   39.90000n    1.0000
   40.00000n    1.0000
   40.10000n  950.0000m
   40.20000n  900.0000m
   40.30000n  850.0000m
   40.40000n  800.0000m
   40.50000n  750.0000m
   40.60000n  700.0000m
   40.70000n  650.0000m
   40.80000n  600.0000m
   40.90000n  550.0000m
   41.00000n  500.0000m
   41.10000n  450.0000m
   41.20000n  400.0000m
   41.30000n  350.0000m
   41.40000n  300.0000m
   41.50000n  250.0000m
   41.60000n  200.0000m
   41.70000n  150.0000m
   41.80000n  100.0000m
   41.90000n   50.0000m
   42.00000n    0.
   42.10000n    0.
   42.20000n    0.
   42.30000n    0.
   42.40000n    0.
   42.50000n    0.
   42.60000n    0.
   42.70000n    0.
   42.80000n    0.
   42.90000n    0.
   43.00000n    0.
   43.10000n    0.
   43.20000n    0.
   43.30000n    0.
   43.40000n    0.
   43.50000n    0.
   43.60000n    0.
   43.70000n    0.
   43.80000n    0.
   43.90000n    0.
   44.00000n    0.
   44.10000n    0.
   44.20000n    0.
   44.30000n    0.
   44.40000n    0.
   44.50000n    0.
   44.60000n    0.
   44.70000n    0.
   44.80000n    0.
   44.90000n    0.
   45.00000n    0.
   45.10000n    0.
   45.20000n    0.
   45.30000n    0.
   45.40000n    0.
   45.50000n    0.
   45.60000n    0.
   45.70000n    0.
   45.80000n    0.
   45.90000n    0.
   46.00000n    0.
   46.10000n    0.
   46.20000n    0.
   46.30000n    0.
   46.40000n    0.
   46.50000n    0.
   46.60000n    0.
   46.70000n    0.
   46.80000n    0.
   46.90000n    0.
   47.00000n    0.
y
x

 time         voltage
             x1
    0.          1.0000
  100.00000p    1.0000
  200.00000p    1.0000
  300.00000p    1.0000
  400.00000p    1.0000
  500.00000p    1.0000
  600.00000p    1.0000
  700.00000p    1.0000
  800.00000p    1.0000
  900.00000p    1.0000
    1.00000n    1.0000
    1.10000n    1.0000
    1.20000n    1.0000
    1.30000n    1.0000
    1.40000n    1.0000
    1.50000n    1.0000
    1.60000n    1.0000
    1.70000n    1.0000
    1.80000n    1.0000
    1.90000n    1.0000
    2.00000n    1.0000
    2.10000n    1.0000
    2.20000n    1.0000
    2.30000n    1.0000
    2.40000n    1.0000
    2.50000n    1.0000
    2.60000n    1.0000
    2.70000n    1.0000
    2.80000n    1.0000
    2.90000n    1.0000
    3.00000n    1.0000
    3.10000n    1.0000
    3.20000n    1.0000
    3.30000n    1.0000
    3.40000n    1.0000
    3.50000n    1.0000
    3.60000n    1.0000
    3.70000n    1.0000
    3.80000n    1.0000
    3.90000n    1.0000
    4.00000n    1.0000
    4.10000n    1.0000
    4.20000n    1.0000
    4.30000n    1.0000
    4.40000n    1.0000
    4.50000n    1.0000
    4.60000n    1.0000
    4.70000n    1.0000
    4.80000n    1.0000
    4.90000n    1.0000
    5.00000n    1.0000
    5.10000n  950.0000m
    5.20000n  900.0000m
    5.30000n  850.0000m
    5.40000n  800.0000m
    5.50000n  750.0000m
    5.60000n  700.0000m
    5.70000n  650.0000m
    5.80000n  600.0000m
    5.90000n  550.0000m
    6.00000n  500.0000m
    6.10000n  450.0000m
    6.20000n  400.0000m
    6.30000n  350.0000m
    6.40000n  300.0000m
    6.50000n  250.0000m
    6.60000n  200.0000m
    6.70000n  150.0000m
    6.80000n  100.0000m
    6.90000n   50.0000m
    7.00000n    0.
    7.10000n    0.
    7.20000n    0.
    7.30000n    0.
    7.40000n    0.
    7.50000n    0.
    7.60000n    0.
    7.70000n    0.
    7.80000n    0.
    7.90000n    0.
    8.00000n    0.
    8.10000n    0.
    8.20000n    0.
    8.30000n    0.
    8.40000n    0.
    8.50000n    0.
    8.60000n    0.
    8.70000n    0.
    8.80000n    0.
    8.90000n    0.
    9.00000n    0.
    9.10000n    0.
    9.20000n    0.
    9.30000n    0.
    9.40000n    0.
    9.50000n    0.
    9.60000n    0.
    9.70000n    0.
    9.80000n    0.
    9.90000n    0.
   10.00000n    0.
   10.10000n    0.
   10.20000n    0.
   10.30000n    0.
   10.40000n    0.
   10.50000n    0.
   10.60000n    0.
   10.70000n    0.
   10.80000n    0.
   10.90000n    0.
   11.00000n    0.
   11.10000n    0.
   11.20000n    0.
   11.30000n    0.
   11.40000n    0.
   11.50000n    0.
   11.60000n    0.
   11.70000n    0.
   11.80000n    0.
   11.90000n    0.
   12.00000n    0.
   12.10000n    0.
   12.20000n    0.
   12.30000n    0.
   12.40000n    0.
   12.50000n    0.
   12.60000n    0.
   12.70000n    0.
   12.80000n    0.
   12.90000n    0.
   13.00000n    0.
   13.10000n    0.
   13.20000n    0.
   13.30000n    0.
   13.40000n    0.
   13.50000n    0.
   13.60000n    0.
   13.70000n    0.
   13.80000n    0.
   13.90000n    0.
   14.00000n    0.
   14.10000n    0.
   14.20000n    0.
   14.30000n    0.
   14.40000n    0.
   14.50000n    0.
   14.60000n    0.
   14.70000n    0.
   14.80000n    0.
   14.90000n    0.
   15.00000n    0.
   15.10000n    0.
   15.20000n    0.
   15.30000n    0.
   15.40000n    0.
   15.50000n    0.
   15.60000n    0.
   15.70000n    0.
   15.80000n    0.
   15.90000n    0.
   16.00000n    0.
   16.10000n    0.
   16.20000n    0.
   16.30000n    0.
   16.40000n    0.
   16.50000n    0.
   16.60000n    0.
   16.70000n    0.
   16.80000n    0.
   16.90000n    0.
   17.00000n    0.
   17.10000n    0.
   17.20000n    0.
   17.30000n    0.
   17.40000n    0.
   17.50000n    0.
   17.60000n    0.
   17.70000n    0.
   17.80000n    0.
   17.90000n    0.
   18.00000n    0.
   18.10000n    0.
   18.20000n    0.
   18.30000n    0.
   18.40000n    0.
   18.50000n    0.
   18.60000n    0.
   18.70000n    0.
   18.80000n    0.
   18.90000n    0.
   19.00000n    0.
   19.10000n   50.0000m
   19.20000n  100.0000m
   19.30000n  150.0000m
   19.40000n  200.0000m
   19.50000n  250.0000m
   19.60000n  300.0000m
   19.70000n  350.0000m
   19.80000n  400.0000m
   19.90000n  450.0000m
   20.00000n  500.0000m
   20.10000n  550.0000m
   20.20000n  600.0000m
   20.30000n  650.0000m
   20.40000n  700.0000m
   20.50000n  750.0000m
   20.60000n  800.0000m
   20.70000n  850.0000m
   20.80000n  900.0000m
   20.90000n  950.0000m
   21.00000n    1.0000
   21.10000n    1.0000
   21.20000n    1.0000
   21.30000n    1.0000
   21.40000n    1.0000
   21.50000n    1.0000
   21.60000n    1.0000
   21.70000n    1.0000
   21.80000n    1.0000
   21.90000n    1.0000
   22.00000n    1.0000
   22.10000n    1.0000
   22.20000n    1.0000
   22.30000n    1.0000
   22.40000n    1.0000
   22.50000n    1.0000
   22.60000n    1.0000
   22.70000n    1.0000
   22.80000n    1.0000
   22.90000n    1.0000
   23.00000n    1.0000
   23.10000n    1.0000
   23.20000n    1.0000
   23.30000n    1.0000
   23.40000n    1.0000
   23.50000n    1.0000
   23.60000n    1.0000
   23.70000n    1.0000
   23.80000n    1.0000
   23.90000n    1.0000
   24.00000n    1.0000
   24.10000n    1.0000
   24.20000n    1.0000
   24.30000n    1.0000
   24.40000n    1.0000
   24.50000n    1.0000
   24.60000n    1.0000
   24.70000n    1.0000
   24.80000n    1.0000
   24.90000n    1.0000
   25.00000n    1.0000
   25.10000n    1.0000
   25.20000n    1.0000
   25.30000n    1.0000
   25.40000n    1.0000
   25.50000n    1.0000
   25.60000n    1.0000
   25.70000n    1.0000
   25.80000n    1.0000
   25.90000n    1.0000
   26.00000n    1.0000
   26.10000n    1.0000
   26.20000n    1.0000
   26.30000n    1.0000
   26.40000n    1.0000
   26.50000n    1.0000
   26.60000n    1.0000
   26.70000n    1.0000
   26.80000n    1.0000
   26.90000n    1.0000
   27.00000n    1.0000
   27.10000n    1.0000
   27.20000n    1.0000
   27.30000n    1.0000
   27.40000n    1.0000
   27.50000n    1.0000
   27.60000n    1.0000
   27.70000n    1.0000
   27.80000n    1.0000
   27.90000n    1.0000
   28.00000n    1.0000
   28.10000n    1.0000
   28.20000n    1.0000
   28.30000n    1.0000
   28.40000n    1.0000
   28.50000n    1.0000
   28.60000n    1.0000
   28.70000n    1.0000
   28.80000n    1.0000
   28.90000n    1.0000
   29.00000n    1.0000
   29.10000n    1.0000
   29.20000n    1.0000
   29.30000n    1.0000
   29.40000n    1.0000
   29.50000n    1.0000
   29.60000n    1.0000
   29.70000n    1.0000
   29.80000n    1.0000
   29.90000n    1.0000
   30.00000n    1.0000
   30.10000n    1.0000
   30.20000n    1.0000
   30.30000n    1.0000
   30.40000n    1.0000
   30.50000n    1.0000
   30.60000n    1.0000
   30.70000n    1.0000
   30.80000n    1.0000
   30.90000n    1.0000
   31.00000n    1.0000
   31.10000n    1.0000
   31.20000n    1.0000
   31.30000n    1.0000
   31.40000n    1.0000
   31.50000n    1.0000
   31.60000n    1.0000
   31.70000n    1.0000
   31.80000n    1.0000
   31.90000n    1.0000
   32.00000n    1.0000
   32.10000n    1.0000
   32.20000n    1.0000
   32.30000n    1.0000
   32.40000n    1.0000
   32.50000n    1.0000
   32.60000n    1.0000
   32.70000n    1.0000
   32.80000n    1.0000
   32.90000n    1.0000
   33.00000n    1.0000
   33.10000n    1.0000
   33.20000n    1.0000
   33.30000n    1.0000
   33.40000n    1.0000
   33.50000n    1.0000
   33.60000n    1.0000
   33.70000n    1.0000
   33.80000n    1.0000
   33.90000n    1.0000
   34.00000n    1.0000
   34.10000n    1.0000
   34.20000n    1.0000
   34.30000n    1.0000
   34.40000n    1.0000
   34.50000n    1.0000
   34.60000n    1.0000
   34.70000n    1.0000
   34.80000n    1.0000
   34.90000n    1.0000
   35.00000n    1.0000
   35.10000n    1.0000
   35.20000n    1.0000
   35.30000n    1.0000
   35.40000n    1.0000
   35.50000n    1.0000
   35.60000n    1.0000
   35.70000n    1.0000
   35.80000n    1.0000
   35.90000n    1.0000
   36.00000n    1.0000
   36.10000n    1.0000
   36.20000n    1.0000
   36.30000n    1.0000
   36.40000n    1.0000
   36.50000n    1.0000
   36.60000n    1.0000
   36.70000n    1.0000
   36.80000n    1.0000
   36.90000n    1.0000
   37.00000n    1.0000
   37.10000n    1.0000
   37.20000n    1.0000
   37.30000n    1.0000
   37.40000n    1.0000
   37.50000n    1.0000
   37.60000n    1.0000
   37.70000n    1.0000
   37.80000n    1.0000
   37.90000n    1.0000
   38.00000n    1.0000
   38.10000n    1.0000
   38.20000n    1.0000
   38.30000n    1.0000
   38.40000n    1.0000
   38.50000n    1.0000
   38.60000n    1.0000
   38.70000n    1.0000
   38.80000n    1.0000
   38.90000n    1.0000
   39.00000n    1.0000
   39.10000n    1.0000
   39.20000n    1.0000
   39.30000n    1.0000
   39.40000n    1.0000
   39.50000n    1.0000
   39.60000n    1.0000
   39.70000n    1.0000
   39.80000n    1.0000
   39.90000n    1.0000
   40.00000n    1.0000
   40.10000n    1.0000
   40.20000n    1.0000
   40.30000n    1.0000
   40.40000n    1.0000
   40.50000n    1.0000
   40.60000n    1.0000
   40.70000n    1.0000
   40.80000n    1.0000
   40.90000n    1.0000
   41.00000n    1.0000
   41.10000n    1.0000
   41.20000n    1.0000
   41.30000n    1.0000
   41.40000n    1.0000
   41.50000n    1.0000
   41.60000n    1.0000
   41.70000n    1.0000
   41.80000n    1.0000
   41.90000n    1.0000
   42.00000n    1.0000
   42.10000n    1.0000
   42.20000n    1.0000
   42.30000n    1.0000
   42.40000n    1.0000
   42.50000n    1.0000
   42.60000n    1.0000
   42.70000n    1.0000
   42.80000n    1.0000
   42.90000n    1.0000
   43.00000n    1.0000
   43.10000n    1.0000
   43.20000n    1.0000
   43.30000n    1.0000
   43.40000n    1.0000
   43.50000n    1.0000
   43.60000n    1.0000
   43.70000n    1.0000
   43.80000n    1.0000
   43.90000n    1.0000
   44.00000n    1.0000
   44.10000n    1.0000
   44.20000n    1.0000
   44.30000n    1.0000
   44.40000n    1.0000
   44.50000n    1.0000
   44.60000n    1.0000
   44.70000n    1.0000
   44.80000n    1.0000
   44.90000n    1.0000
   45.00000n    1.0000
   45.10000n    1.0000
   45.20000n    1.0000
   45.30000n    1.0000
   45.40000n    1.0000
   45.50000n    1.0000
   45.60000n    1.0000
   45.70000n    1.0000
   45.80000n    1.0000
   45.90000n    1.0000
   46.00000n    1.0000
   46.10000n    1.0000
   46.20000n    1.0000
   46.30000n    1.0000
   46.40000n    1.0000
   46.50000n    1.0000
   46.60000n    1.0000
   46.70000n    1.0000
   46.80000n    1.0000
   46.90000n    1.0000
   47.00000n    1.0000
y
x

 time         voltage
             y1
    0.          1.0000
  100.00000p    1.0000
  200.00000p    1.0000
  300.00000p    1.0000
  400.00000p    1.0000
  500.00000p    1.0000
  600.00000p    1.0000
  700.00000p    1.0000
  800.00000p    1.0000
  900.00000p    1.0000
    1.00000n    1.0000
    1.10000n    1.0000
    1.20000n    1.0000
    1.30000n    1.0000
    1.40000n    1.0000
    1.50000n    1.0000
    1.60000n    1.0000
    1.70000n    1.0000
    1.80000n    1.0000
    1.90000n    1.0000
    2.00000n    1.0000
    2.10000n    1.0000
    2.20000n    1.0000
    2.30000n    1.0000
    2.40000n    1.0000
    2.50000n    1.0000
    2.60000n    1.0000
    2.70000n    1.0000
    2.80000n    1.0000
    2.90000n    1.0000
    3.00000n    1.0000
    3.10000n    1.0000
    3.20000n    1.0000
    3.30000n    1.0000
    3.40000n    1.0000
    3.50000n    1.0000
    3.60000n    1.0000
    3.70000n    1.0000
    3.80000n    1.0000
    3.90000n    1.0000
    4.00000n    1.0000
    4.10000n    1.0000
    4.20000n    1.0000
    4.30000n    1.0000
    4.40000n    1.0000
    4.50000n    1.0000
    4.60000n    1.0000
    4.70000n    1.0000
    4.80000n    1.0000
    4.90000n    1.0000
    5.00000n    1.0000
    5.10000n  950.0000m
    5.20000n  900.0000m
    5.30000n  850.0000m
    5.40000n  800.0000m
    5.50000n  750.0000m
    5.60000n  700.0000m
    5.70000n  650.0000m
    5.80000n  600.0000m
    5.90000n  550.0000m
    6.00000n  500.0000m
    6.10000n  450.0000m
    6.20000n  400.0000m
    6.30000n  350.0000m
    6.40000n  300.0000m
    6.50000n  250.0000m
    6.60000n  200.0000m
    6.70000n  150.0000m
    6.80000n  100.0000m
    6.90000n   50.0000m
    7.00000n    0.
    7.10000n    0.
    7.20000n    0.
    7.30000n    0.
    7.40000n    0.
    7.50000n    0.
    7.60000n    0.
    7.70000n    0.
    7.80000n    0.
    7.90000n    0.
    8.00000n    0.
    8.10000n    0.
    8.20000n    0.
    8.30000n    0.
    8.40000n    0.
    8.50000n    0.
    8.60000n    0.
    8.70000n    0.
    8.80000n    0.
    8.90000n    0.
    9.00000n    0.
    9.10000n    0.
    9.20000n    0.
    9.30000n    0.
    9.40000n    0.
    9.50000n    0.
    9.60000n    0.
    9.70000n    0.
    9.80000n    0.
    9.90000n    0.
   10.00000n    0.
   10.10000n    0.
   10.20000n    0.
   10.30000n    0.
   10.40000n    0.
   10.50000n    0.
   10.60000n    0.
   10.70000n    0.
   10.80000n    0.
   10.90000n    0.
   11.00000n    0.
   11.10000n    0.
   11.20000n    0.
   11.30000n    0.
   11.40000n    0.
   11.50000n    0.
   11.60000n    0.
   11.70000n    0.
   11.80000n    0.
   11.90000n    0.
   12.00000n    0.
   12.10000n   50.0000m
   12.20000n  100.0000m
   12.30000n  150.0000m
   12.40000n  200.0000m
   12.50000n  250.0000m
   12.60000n  300.0000m
   12.70000n  350.0000m
   12.80000n  400.0000m
   12.90000n  450.0000m
   13.00000n  500.0000m
   13.10000n  550.0000m
   13.20000n  600.0000m
   13.30000n  650.0000m
   13.40000n  700.0000m
   13.50000n  750.0000m
   13.60000n  800.0000m
   13.70000n  850.0000m
   13.80000n  900.0000m
   13.90000n  950.0000m
   14.00000n    1.0000
   14.10000n    1.0000
   14.20000n    1.0000
   14.30000n    1.0000
   14.40000n    1.0000
   14.50000n    1.0000
   14.60000n    1.0000
   14.70000n    1.0000
   14.80000n    1.0000
   14.90000n    1.0000
   15.00000n    1.0000
   15.10000n    1.0000
   15.20000n    1.0000
   15.30000n    1.0000
   15.40000n    1.0000
   15.50000n    1.0000
   15.60000n    1.0000
   15.70000n    1.0000
   15.80000n    1.0000
   15.90000n    1.0000
   16.00000n    1.0000
   16.10000n    1.0000
   16.20000n    1.0000
   16.30000n    1.0000
   16.40000n    1.0000
   16.50000n    1.0000
   16.60000n    1.0000
   16.70000n    1.0000
   16.80000n    1.0000
   16.90000n    1.0000
   17.00000n    1.0000
   17.10000n    1.0000
   17.20000n    1.0000
   17.30000n    1.0000
   17.40000n    1.0000
   17.50000n    1.0000
   17.60000n    1.0000
   17.70000n    1.0000
   17.80000n    1.0000
   17.90000n    1.0000
   18.00000n    1.0000
   18.10000n    1.0000
   18.20000n    1.0000
   18.30000n    1.0000
   18.40000n    1.0000
   18.50000n    1.0000
   18.60000n    1.0000
   18.70000n    1.0000
   18.80000n    1.0000
   18.90000n    1.0000
   19.00000n    1.0000
   19.10000n    1.0000
   19.20000n    1.0000
   19.30000n    1.0000
   19.40000n    1.0000
   19.50000n    1.0000
   19.60000n    1.0000
   19.70000n    1.0000
   19.80000n    1.0000
   19.90000n    1.0000
   20.00000n    1.0000
   20.10000n    1.0000
   20.20000n    1.0000
   20.30000n    1.0000
   20.40000n    1.0000
   20.50000n    1.0000
   20.60000n    1.0000
   20.70000n    1.0000
   20.80000n    1.0000
   20.90000n    1.0000
   21.00000n    1.0000
   21.10000n    1.0000
   21.20000n    1.0000
   21.30000n    1.0000
   21.40000n    1.0000
   21.50000n    1.0000
   21.60000n    1.0000
   21.70000n    1.0000
   21.80000n    1.0000
   21.90000n    1.0000
   22.00000n    1.0000
   22.10000n    1.0000
   22.20000n    1.0000
   22.30000n    1.0000
   22.40000n    1.0000
   22.50000n    1.0000
   22.60000n    1.0000
   22.70000n    1.0000
   22.80000n    1.0000
   22.90000n    1.0000
   23.00000n    1.0000
   23.10000n    1.0000
   23.20000n    1.0000
   23.30000n    1.0000
   23.40000n    1.0000
   23.50000n    1.0000
   23.60000n    1.0000
   23.70000n    1.0000
   23.80000n    1.0000
   23.90000n    1.0000
   24.00000n    1.0000
   24.10000n    1.0000
   24.20000n    1.0000
   24.30000n    1.0000
   24.40000n    1.0000
   24.50000n    1.0000
   24.60000n    1.0000
   24.70000n    1.0000
   24.80000n    1.0000
   24.90000n    1.0000
   25.00000n    1.0000
   25.10000n    1.0000
   25.20000n    1.0000
   25.30000n    1.0000
   25.40000n    1.0000
   25.50000n    1.0000
   25.60000n    1.0000
   25.70000n    1.0000
   25.80000n    1.0000
   25.90000n    1.0000
   26.00000n    1.0000
   26.10000n  950.0000m
   26.20000n  900.0000m
   26.30000n  850.0000m
   26.40000n  800.0000m
   26.50000n  750.0000m
   26.60000n  700.0000m
   26.70000n  650.0000m
   26.80000n  600.0000m
   26.90000n  550.0000m
   27.00000n  500.0000m
   27.10000n  450.0000m
   27.20000n  400.0000m
   27.30000n  350.0000m
   27.40000n  300.0000m
   27.50000n  250.0000m
   27.60000n  200.0000m
   27.70000n  150.0000m
   27.80000n  100.0000m
   27.90000n   50.0000m
   28.00000n    0.
   28.10000n    0.
   28.20000n    0.
   28.30000n    0.
   28.40000n    0.
   28.50000n    0.
   28.60000n    0.
   28.70000n    0.
   28.80000n    0.
   28.90000n    0.
   29.00000n    0.
   29.10000n    0.
   29.20000n    0.
   29.30000n    0.
   29.40000n    0.
   29.50000n    0.
   29.60000n    0.
   29.70000n    0.
   29.80000n    0.
   29.90000n    0.
   30.00000n    0.
   30.10000n    0.
   30.20000n    0.
   30.30000n    0.
   30.40000n    0.
   30.50000n    0.
   30.60000n    0.
   30.70000n    0.
   30.80000n    0.
   30.90000n    0.
   31.00000n    0.
   31.10000n    0.
   31.20000n    0.
   31.30000n    0.
   31.40000n    0.
   31.50000n    0.
   31.60000n    0.
   31.70000n    0.
   31.80000n    0.
   31.90000n    0.
   32.00000n    0.
   32.10000n    0.
   32.20000n    0.
   32.30000n    0.
   32.40000n    0.
   32.50000n    0.
   32.60000n    0.
   32.70000n    0.
   32.80000n    0.
   32.90000n    0.
   33.00000n    0.
   33.10000n    0.
   33.20000n    0.
   33.30000n    0.
   33.40000n    0.
   33.50000n    0.
   33.60000n    0.
   33.70000n    0.
   33.80000n    0.
   33.90000n    0.
   34.00000n    0.
   34.10000n    0.
   34.20000n    0.
   34.30000n    0.
   34.40000n    0.
   34.50000n    0.
   34.60000n    0.
   34.70000n    0.
   34.80000n    0.
   34.90000n    0.
   35.00000n    0.
   35.10000n    0.
   35.20000n    0.
   35.30000n    0.
   35.40000n    0.
   35.50000n    0.
   35.60000n    0.
   35.70000n    0.
   35.80000n    0.
   35.90000n    0.
   36.00000n    0.
   36.10000n    0.
   36.20000n    0.
   36.30000n    0.
   36.40000n    0.
   36.50000n    0.
   36.60000n    0.
   36.70000n    0.
   36.80000n    0.
   36.90000n    0.
   37.00000n    0.
   37.10000n    0.
   37.20000n    0.
   37.30000n    0.
   37.40000n    0.
   37.50000n    0.
   37.60000n    0.
   37.70000n    0.
   37.80000n    0.
   37.90000n    0.
   38.00000n    0.
   38.10000n    0.
   38.20000n    0.
   38.30000n    0.
   38.40000n    0.
   38.50000n    0.
   38.60000n    0.
   38.70000n    0.
   38.80000n    0.
   38.90000n    0.
   39.00000n    0.
   39.10000n    0.
   39.20000n    0.
   39.30000n    0.
   39.40000n    0.
   39.50000n    0.
   39.60000n    0.
   39.70000n    0.
   39.80000n    0.
   39.90000n    0.
   40.00000n    0.
   40.10000n    0.
   40.20000n    0.
   40.30000n    0.
   40.40000n    0.
   40.50000n    0.
   40.60000n    0.
   40.70000n    0.
   40.80000n    0.
   40.90000n    0.
   41.00000n    0.
   41.10000n    0.
   41.20000n    0.
   41.30000n    0.
   41.40000n    0.
   41.50000n    0.
   41.60000n    0.
   41.70000n    0.
   41.80000n    0.
   41.90000n    0.
   42.00000n    0.
   42.10000n    0.
   42.20000n    0.
   42.30000n    0.
   42.40000n    0.
   42.50000n    0.
   42.60000n    0.
   42.70000n    0.
   42.80000n    0.
   42.90000n    0.
   43.00000n    0.
   43.10000n    0.
   43.20000n    0.
   43.30000n    0.
   43.40000n    0.
   43.50000n    0.
   43.60000n    0.
   43.70000n    0.
   43.80000n    0.
   43.90000n    0.
   44.00000n    0.
   44.10000n    0.
   44.20000n    0.
   44.30000n    0.
   44.40000n    0.
   44.50000n    0.
   44.60000n    0.
   44.70000n    0.
   44.80000n    0.
   44.90000n    0.
   45.00000n    0.
   45.10000n    0.
   45.20000n    0.
   45.30000n    0.
   45.40000n    0.
   45.50000n    0.
   45.60000n    0.
   45.70000n    0.
   45.80000n    0.
   45.90000n    0.
   46.00000n    0.
   46.10000n    0.
   46.20000n    0.
   46.30000n    0.
   46.40000n    0.
   46.50000n    0.
   46.60000n    0.
   46.70000n    0.
   46.80000n    0.
   46.90000n    0.
   47.00000n    0.
y
x

 time         voltage
             x2
    0.          1.0000
  100.00000p    1.0000
  200.00000p    1.0000
  300.00000p    1.0000
  400.00000p    1.0000
  500.00000p    1.0000
  600.00000p    1.0000
  700.00000p    1.0000
  800.00000p    1.0000
  900.00000p    1.0000
    1.00000n    1.0000
    1.10000n    1.0000
    1.20000n    1.0000
    1.30000n    1.0000
    1.40000n    1.0000
    1.50000n    1.0000
    1.60000n    1.0000
    1.70000n    1.0000
    1.80000n    1.0000
    1.90000n    1.0000
    2.00000n    1.0000
    2.10000n    1.0000
    2.20000n    1.0000
    2.30000n    1.0000
    2.40000n    1.0000
    2.50000n    1.0000
    2.60000n    1.0000
    2.70000n    1.0000
    2.80000n    1.0000
    2.90000n    1.0000
    3.00000n    1.0000
    3.10000n    1.0000
    3.20000n    1.0000
    3.30000n    1.0000
    3.40000n    1.0000
    3.50000n    1.0000
    3.60000n    1.0000
    3.70000n    1.0000
    3.80000n    1.0000
    3.90000n    1.0000
    4.00000n    1.0000
    4.10000n    1.0000
    4.20000n    1.0000
    4.30000n    1.0000
    4.40000n    1.0000
    4.50000n    1.0000
    4.60000n    1.0000
    4.70000n    1.0000
    4.80000n    1.0000
    4.90000n    1.0000
    5.00000n    1.0000
    5.10000n  950.0000m
    5.20000n  900.0000m
    5.30000n  850.0000m
    5.40000n  800.0000m
    5.50000n  750.0000m
    5.60000n  700.0000m
    5.70000n  650.0000m
    5.80000n  600.0000m
    5.90000n  550.0000m
    6.00000n  500.0000m
    6.10000n  450.0000m
    6.20000n  400.0000m
    6.30000n  350.0000m
    6.40000n  300.0000m
    6.50000n  250.0000m
    6.60000n  200.0000m
    6.70000n  150.0000m
    6.80000n  100.0000m
    6.90000n   50.0000m
    7.00000n    0.
    7.10000n    0.
    7.20000n    0.
    7.30000n    0.
    7.40000n    0.
    7.50000n    0.
    7.60000n    0.
    7.70000n    0.
    7.80000n    0.
    7.90000n    0.
    8.00000n    0.
    8.10000n    0.
    8.20000n    0.
    8.30000n    0.
    8.40000n    0.
    8.50000n    0.
    8.60000n    0.
    8.70000n    0.
    8.80000n    0.
    8.90000n    0.
    9.00000n    0.
    9.10000n    0.
    9.20000n    0.
    9.30000n    0.
    9.40000n    0.
    9.50000n    0.
    9.60000n    0.
    9.70000n    0.
    9.80000n    0.
    9.90000n    0.
   10.00000n    0.
   10.10000n    0.
   10.20000n    0.
   10.30000n    0.
   10.40000n    0.
   10.50000n    0.
   10.60000n    0.
   10.70000n    0.
   10.80000n    0.
   10.90000n    0.
   11.00000n    0.
   11.10000n    0.
   11.20000n    0.
   11.30000n    0.
   11.40000n    0.
   11.50000n    0.
   11.60000n    0.
   11.70000n    0.
   11.80000n    0.
   11.90000n    0.
   12.00000n    0.
   12.10000n    0.
   12.20000n    0.
   12.30000n    0.
   12.40000n    0.
   12.50000n    0.
   12.60000n    0.
   12.70000n    0.
   12.80000n    0.
   12.90000n    0.
   13.00000n    0.
   13.10000n    0.
   13.20000n    0.
   13.30000n    0.
   13.40000n    0.
   13.50000n    0.
   13.60000n    0.
   13.70000n    0.
   13.80000n    0.
   13.90000n    0.
   14.00000n    0.
   14.10000n    0.
   14.20000n    0.
   14.30000n    0.
   14.40000n    0.
   14.50000n    0.
   14.60000n    0.
   14.70000n    0.
   14.80000n    0.
   14.90000n    0.
   15.00000n    0.
   15.10000n    0.
   15.20000n    0.
   15.30000n    0.
   15.40000n    0.
   15.50000n    0.
   15.60000n    0.
   15.70000n    0.
   15.80000n    0.
   15.90000n    0.
   16.00000n    0.
   16.10000n    0.
   16.20000n    0.
   16.30000n    0.
   16.40000n    0.
   16.50000n    0.
   16.60000n    0.
   16.70000n    0.
   16.80000n    0.
   16.90000n    0.
   17.00000n    0.
   17.10000n    0.
   17.20000n    0.
   17.30000n    0.
   17.40000n    0.
   17.50000n    0.
   17.60000n    0.
   17.70000n    0.
   17.80000n    0.
   17.90000n    0.
   18.00000n    0.
   18.10000n    0.
   18.20000n    0.
   18.30000n    0.
   18.40000n    0.
   18.50000n    0.
   18.60000n    0.
   18.70000n    0.
   18.80000n    0.
   18.90000n    0.
   19.00000n    0.
   19.10000n    0.
   19.20000n    0.
   19.30000n    0.
   19.40000n    0.
   19.50000n    0.
   19.60000n    0.
   19.70000n    0.
   19.80000n    0.
   19.90000n    0.
   20.00000n    0.
   20.10000n    0.
   20.20000n    0.
   20.30000n    0.
   20.40000n    0.
   20.50000n    0.
   20.60000n    0.
   20.70000n    0.
   20.80000n    0.
   20.90000n    0.
   21.00000n    0.
   21.10000n    0.
   21.20000n    0.
   21.30000n    0.
   21.40000n    0.
   21.50000n    0.
   21.60000n    0.
   21.70000n    0.
   21.80000n    0.
   21.90000n    0.
   22.00000n    0.
   22.10000n    0.
   22.20000n    0.
   22.30000n    0.
   22.40000n    0.
   22.50000n    0.
   22.60000n    0.
   22.70000n    0.
   22.80000n    0.
   22.90000n    0.
   23.00000n    0.
   23.10000n    0.
   23.20000n    0.
   23.30000n    0.
   23.40000n    0.
   23.50000n    0.
   23.60000n    0.
   23.70000n    0.
   23.80000n    0.
   23.90000n    0.
   24.00000n    0.
   24.10000n    0.
   24.20000n    0.
   24.30000n    0.
   24.40000n    0.
   24.50000n    0.
   24.60000n    0.
   24.70000n    0.
   24.80000n    0.
   24.90000n    0.
   25.00000n    0.
   25.10000n    0.
   25.20000n    0.
   25.30000n    0.
   25.40000n    0.
   25.50000n    0.
   25.60000n    0.
   25.70000n    0.
   25.80000n    0.
   25.90000n    0.
   26.00000n    0.
   26.10000n    0.
   26.20000n    0.
   26.30000n    0.
   26.40000n    0.
   26.50000n    0.
   26.60000n    0.
   26.70000n    0.
   26.80000n    0.
   26.90000n    0.
   27.00000n    0.
   27.10000n    0.
   27.20000n    0.
   27.30000n    0.
   27.40000n    0.
   27.50000n    0.
   27.60000n    0.
   27.70000n    0.
   27.80000n    0.
   27.90000n    0.
   28.00000n    0.
   28.10000n    0.
   28.20000n    0.
   28.30000n    0.
   28.40000n    0.
   28.50000n    0.
   28.60000n    0.
   28.70000n    0.
   28.80000n    0.
   28.90000n    0.
   29.00000n    0.
   29.10000n    0.
   29.20000n    0.
   29.30000n    0.
   29.40000n    0.
   29.50000n    0.
   29.60000n    0.
   29.70000n    0.
   29.80000n    0.
   29.90000n    0.
   30.00000n    0.
   30.10000n    0.
   30.20000n    0.
   30.30000n    0.
   30.40000n    0.
   30.50000n    0.
   30.60000n    0.
   30.70000n    0.
   30.80000n    0.
   30.90000n    0.
   31.00000n    0.
   31.10000n    0.
   31.20000n    0.
   31.30000n    0.
   31.40000n    0.
   31.50000n    0.
   31.60000n    0.
   31.70000n    0.
   31.80000n    0.
   31.90000n    0.
   32.00000n    0.
   32.10000n    0.
   32.20000n    0.
   32.30000n    0.
   32.40000n    0.
   32.50000n    0.
   32.60000n    0.
   32.70000n    0.
   32.80000n    0.
   32.90000n    0.
   33.00000n    0.
   33.10000n   50.0000m
   33.20000n  100.0000m
   33.30000n  150.0000m
   33.40000n  200.0000m
   33.50000n  250.0000m
   33.60000n  300.0000m
   33.70000n  350.0000m
   33.80000n  400.0000m
   33.90000n  450.0000m
   34.00000n  500.0000m
   34.10000n  550.0000m
   34.20000n  600.0000m
   34.30000n  650.0000m
   34.40000n  700.0000m
   34.50000n  750.0000m
   34.60000n  800.0000m
   34.70000n  850.0000m
   34.80000n  900.0000m
   34.90000n  950.0000m
   35.00000n    1.0000
   35.10000n    1.0000
   35.20000n    1.0000
   35.30000n    1.0000
   35.40000n    1.0000
   35.50000n    1.0000
   35.60000n    1.0000
   35.70000n    1.0000
   35.80000n    1.0000
   35.90000n    1.0000
   36.00000n    1.0000
   36.10000n    1.0000
   36.20000n    1.0000
   36.30000n    1.0000
   36.40000n    1.0000
   36.50000n    1.0000
   36.60000n    1.0000
   36.70000n    1.0000
   36.80000n    1.0000
   36.90000n    1.0000
   37.00000n    1.0000
   37.10000n    1.0000
   37.20000n    1.0000
   37.30000n    1.0000
   37.40000n    1.0000
   37.50000n    1.0000
   37.60000n    1.0000
   37.70000n    1.0000
   37.80000n    1.0000
   37.90000n    1.0000
   38.00000n    1.0000
   38.10000n    1.0000
   38.20000n    1.0000
   38.30000n    1.0000
   38.40000n    1.0000
   38.50000n    1.0000
   38.60000n    1.0000
   38.70000n    1.0000
   38.80000n    1.0000
   38.90000n    1.0000
   39.00000n    1.0000
   39.10000n    1.0000
   39.20000n    1.0000
   39.30000n    1.0000
   39.40000n    1.0000
   39.50000n    1.0000
   39.60000n    1.0000
   39.70000n    1.0000
   39.80000n    1.0000
   39.90000n    1.0000
   40.00000n    1.0000
   40.10000n    1.0000
   40.20000n    1.0000
   40.30000n    1.0000
   40.40000n    1.0000
   40.50000n    1.0000
   40.60000n    1.0000
   40.70000n    1.0000
   40.80000n    1.0000
   40.90000n    1.0000
   41.00000n    1.0000
   41.10000n    1.0000
   41.20000n    1.0000
   41.30000n    1.0000
   41.40000n    1.0000
   41.50000n    1.0000
   41.60000n    1.0000
   41.70000n    1.0000
   41.80000n    1.0000
   41.90000n    1.0000
   42.00000n    1.0000
   42.10000n    1.0000
   42.20000n    1.0000
   42.30000n    1.0000
   42.40000n    1.0000
   42.50000n    1.0000
   42.60000n    1.0000
   42.70000n    1.0000
   42.80000n    1.0000
   42.90000n    1.0000
   43.00000n    1.0000
   43.10000n    1.0000
   43.20000n    1.0000
   43.30000n    1.0000
   43.40000n    1.0000
   43.50000n    1.0000
   43.60000n    1.0000
   43.70000n    1.0000
   43.80000n    1.0000
   43.90000n    1.0000
   44.00000n    1.0000
   44.10000n    1.0000
   44.20000n    1.0000
   44.30000n    1.0000
   44.40000n    1.0000
   44.50000n    1.0000
   44.60000n    1.0000
   44.70000n    1.0000
   44.80000n    1.0000
   44.90000n    1.0000
   45.00000n    1.0000
   45.10000n    1.0000
   45.20000n    1.0000
   45.30000n    1.0000
   45.40000n    1.0000
   45.50000n    1.0000
   45.60000n    1.0000
   45.70000n    1.0000
   45.80000n    1.0000
   45.90000n    1.0000
   46.00000n    1.0000
   46.10000n    1.0000
   46.20000n    1.0000
   46.30000n    1.0000
   46.40000n    1.0000
   46.50000n    1.0000
   46.60000n    1.0000
   46.70000n    1.0000
   46.80000n    1.0000
   46.90000n    1.0000
   47.00000n    1.0000
y
x

 time         voltage
             y2
    0.          1.0000
  100.00000p    1.0000
  200.00000p    1.0000
  300.00000p    1.0000
  400.00000p    1.0000
  500.00000p    1.0000
  600.00000p    1.0000
  700.00000p    1.0000
  800.00000p    1.0000
  900.00000p    1.0000
    1.00000n    1.0000
    1.10000n    1.0000
    1.20000n    1.0000
    1.30000n    1.0000
    1.40000n    1.0000
    1.50000n    1.0000
    1.60000n    1.0000
    1.70000n    1.0000
    1.80000n    1.0000
    1.90000n    1.0000
    2.00000n    1.0000
    2.10000n    1.0000
    2.20000n    1.0000
    2.30000n    1.0000
    2.40000n    1.0000
    2.50000n    1.0000
    2.60000n    1.0000
    2.70000n    1.0000
    2.80000n    1.0000
    2.90000n    1.0000
    3.00000n    1.0000
    3.10000n    1.0000
    3.20000n    1.0000
    3.30000n    1.0000
    3.40000n    1.0000
    3.50000n    1.0000
    3.60000n    1.0000
    3.70000n    1.0000
    3.80000n    1.0000
    3.90000n    1.0000
    4.00000n    1.0000
    4.10000n    1.0000
    4.20000n    1.0000
    4.30000n    1.0000
    4.40000n    1.0000
    4.50000n    1.0000
    4.60000n    1.0000
    4.70000n    1.0000
    4.80000n    1.0000
    4.90000n    1.0000
    5.00000n    1.0000
    5.10000n  950.0000m
    5.20000n  900.0000m
    5.30000n  850.0000m
    5.40000n  800.0000m
    5.50000n  750.0000m
    5.60000n  700.0000m
    5.70000n  650.0000m
    5.80000n  600.0000m
    5.90000n  550.0000m
    6.00000n  500.0000m
    6.10000n  450.0000m
    6.20000n  400.0000m
    6.30000n  350.0000m
    6.40000n  300.0000m
    6.50000n  250.0000m
    6.60000n  200.0000m
    6.70000n  150.0000m
    6.80000n  100.0000m
    6.90000n   50.0000m
    7.00000n    0.
    7.10000n    0.
    7.20000n    0.
    7.30000n    0.
    7.40000n    0.
    7.50000n    0.
    7.60000n    0.
    7.70000n    0.
    7.80000n    0.
    7.90000n    0.
    8.00000n    0.
    8.10000n    0.
    8.20000n    0.
    8.30000n    0.
    8.40000n    0.
    8.50000n    0.
    8.60000n    0.
    8.70000n    0.
    8.80000n    0.
    8.90000n    0.
    9.00000n    0.
    9.10000n    0.
    9.20000n    0.
    9.30000n    0.
    9.40000n    0.
    9.50000n    0.
    9.60000n    0.
    9.70000n    0.
    9.80000n    0.
    9.90000n    0.
   10.00000n    0.
   10.10000n    0.
   10.20000n    0.
   10.30000n    0.
   10.40000n    0.
   10.50000n    0.
   10.60000n    0.
   10.70000n    0.
   10.80000n    0.
   10.90000n    0.
   11.00000n    0.
   11.10000n    0.
   11.20000n    0.
   11.30000n    0.
   11.40000n    0.
   11.50000n    0.
   11.60000n    0.
   11.70000n    0.
   11.80000n    0.
   11.90000n    0.
   12.00000n    0.
   12.10000n    0.
   12.20000n    0.
   12.30000n    0.
   12.40000n    0.
   12.50000n    0.
   12.60000n    0.
   12.70000n    0.
   12.80000n    0.
   12.90000n    0.
   13.00000n    0.
   13.10000n    0.
   13.20000n    0.
   13.30000n    0.
   13.40000n    0.
   13.50000n    0.
   13.60000n    0.
   13.70000n    0.
   13.80000n    0.
   13.90000n    0.
   14.00000n    0.
   14.10000n    0.
   14.20000n    0.
   14.30000n    0.
   14.40000n    0.
   14.50000n    0.
   14.60000n    0.
   14.70000n    0.
   14.80000n    0.
   14.90000n    0.
   15.00000n    0.
   15.10000n    0.
   15.20000n    0.
   15.30000n    0.
   15.40000n    0.
   15.50000n    0.
   15.60000n    0.
   15.70000n    0.
   15.80000n    0.
   15.90000n    0.
   16.00000n    0.
   16.10000n    0.
   16.20000n    0.
   16.30000n    0.
   16.40000n    0.
   16.50000n    0.
   16.60000n    0.
   16.70000n    0.
   16.80000n    0.
   16.90000n    0.
   17.00000n    0.
   17.10000n    0.
   17.20000n    0.
   17.30000n    0.
   17.40000n    0.
   17.50000n    0.
   17.60000n    0.
   17.70000n    0.
   17.80000n    0.
   17.90000n    0.
   18.00000n    0.
   18.10000n    0.
   18.20000n    0.
   18.30000n    0.
   18.40000n    0.
   18.50000n    0.
   18.60000n    0.
   18.70000n    0.
   18.80000n    0.
   18.90000n    0.
   19.00000n    0.
   19.10000n    0.
   19.20000n    0.
   19.30000n    0.
   19.40000n    0.
   19.50000n    0.
   19.60000n    0.
   19.70000n    0.
   19.80000n    0.
   19.90000n    0.
   20.00000n    0.
   20.10000n    0.
   20.20000n    0.
   20.30000n    0.
   20.40000n    0.
   20.50000n    0.
   20.60000n    0.
   20.70000n    0.
   20.80000n    0.
   20.90000n    0.
   21.00000n    0.
   21.10000n    0.
   21.20000n    0.
   21.30000n    0.
   21.40000n    0.
   21.50000n    0.
   21.60000n    0.
   21.70000n    0.
   21.80000n    0.
   21.90000n    0.
   22.00000n    0.
   22.10000n    0.
   22.20000n    0.
   22.30000n    0.
   22.40000n    0.
   22.50000n    0.
   22.60000n    0.
   22.70000n    0.
   22.80000n    0.
   22.90000n    0.
   23.00000n    0.
   23.10000n    0.
   23.20000n    0.
   23.30000n    0.
   23.40000n    0.
   23.50000n    0.
   23.60000n    0.
   23.70000n    0.
   23.80000n    0.
   23.90000n    0.
   24.00000n    0.
   24.10000n    0.
   24.20000n    0.
   24.30000n    0.
   24.40000n    0.
   24.50000n    0.
   24.60000n    0.
   24.70000n    0.
   24.80000n    0.
   24.90000n    0.
   25.00000n    0.
   25.10000n    0.
   25.20000n    0.
   25.30000n    0.
   25.40000n    0.
   25.50000n    0.
   25.60000n    0.
   25.70000n    0.
   25.80000n    0.
   25.90000n    0.
   26.00000n    0.
   26.10000n   50.0000m
   26.20000n  100.0000m
   26.30000n  150.0000m
   26.40000n  200.0000m
   26.50000n  250.0000m
   26.60000n  300.0000m
   26.70000n  350.0000m
   26.80000n  400.0000m
   26.90000n  450.0000m
   27.00000n  500.0000m
   27.10000n  550.0000m
   27.20000n  600.0000m
   27.30000n  650.0000m
   27.40000n  700.0000m
   27.50000n  750.0000m
   27.60000n  800.0000m
   27.70000n  850.0000m
   27.80000n  900.0000m
   27.90000n  950.0000m
   28.00000n    1.0000
   28.10000n    1.0000
   28.20000n    1.0000
   28.30000n    1.0000
   28.40000n    1.0000
   28.50000n    1.0000
   28.60000n    1.0000
   28.70000n    1.0000
   28.80000n    1.0000
   28.90000n    1.0000
   29.00000n    1.0000
   29.10000n    1.0000
   29.20000n    1.0000
   29.30000n    1.0000
   29.40000n    1.0000
   29.50000n    1.0000
   29.60000n    1.0000
   29.70000n    1.0000
   29.80000n    1.0000
   29.90000n    1.0000
   30.00000n    1.0000
   30.10000n    1.0000
   30.20000n    1.0000
   30.30000n    1.0000
   30.40000n    1.0000
   30.50000n    1.0000
   30.60000n    1.0000
   30.70000n    1.0000
   30.80000n    1.0000
   30.90000n    1.0000
   31.00000n    1.0000
   31.10000n    1.0000
   31.20000n    1.0000
   31.30000n    1.0000
   31.40000n    1.0000
   31.50000n    1.0000
   31.60000n    1.0000
   31.70000n    1.0000
   31.80000n    1.0000
   31.90000n    1.0000
   32.00000n    1.0000
   32.10000n    1.0000
   32.20000n    1.0000
   32.30000n    1.0000
   32.40000n    1.0000
   32.50000n    1.0000
   32.60000n    1.0000
   32.70000n    1.0000
   32.80000n    1.0000
   32.90000n    1.0000
   33.00000n    1.0000
   33.10000n    1.0000
   33.20000n    1.0000
   33.30000n    1.0000
   33.40000n    1.0000
   33.50000n    1.0000
   33.60000n    1.0000
   33.70000n    1.0000
   33.80000n    1.0000
   33.90000n    1.0000
   34.00000n    1.0000
   34.10000n    1.0000
   34.20000n    1.0000
   34.30000n    1.0000
   34.40000n    1.0000
   34.50000n    1.0000
   34.60000n    1.0000
   34.70000n    1.0000
   34.80000n    1.0000
   34.90000n    1.0000
   35.00000n    1.0000
   35.10000n    1.0000
   35.20000n    1.0000
   35.30000n    1.0000
   35.40000n    1.0000
   35.50000n    1.0000
   35.60000n    1.0000
   35.70000n    1.0000
   35.80000n    1.0000
   35.90000n    1.0000
   36.00000n    1.0000
   36.10000n    1.0000
   36.20000n    1.0000
   36.30000n    1.0000
   36.40000n    1.0000
   36.50000n    1.0000
   36.60000n    1.0000
   36.70000n    1.0000
   36.80000n    1.0000
   36.90000n    1.0000
   37.00000n    1.0000
   37.10000n    1.0000
   37.20000n    1.0000
   37.30000n    1.0000
   37.40000n    1.0000
   37.50000n    1.0000
   37.60000n    1.0000
   37.70000n    1.0000
   37.80000n    1.0000
   37.90000n    1.0000
   38.00000n    1.0000
   38.10000n    1.0000
   38.20000n    1.0000
   38.30000n    1.0000
   38.40000n    1.0000
   38.50000n    1.0000
   38.60000n    1.0000
   38.70000n    1.0000
   38.80000n    1.0000
   38.90000n    1.0000
   39.00000n    1.0000
   39.10000n    1.0000
   39.20000n    1.0000
   39.30000n    1.0000
   39.40000n    1.0000
   39.50000n    1.0000
   39.60000n    1.0000
   39.70000n    1.0000
   39.80000n    1.0000
   39.90000n    1.0000
   40.00000n    1.0000
   40.10000n  950.0000m
   40.20000n  900.0000m
   40.30000n  850.0000m
   40.40000n  800.0000m
   40.50000n  750.0000m
   40.60000n  700.0000m
   40.70000n  650.0000m
   40.80000n  600.0000m
   40.90000n  550.0000m
   41.00000n  500.0000m
   41.10000n  450.0000m
   41.20000n  400.0000m
   41.30000n  350.0000m
   41.40000n  300.0000m
   41.50000n  250.0000m
   41.60000n  200.0000m
   41.70000n  150.0000m
   41.80000n  100.0000m
   41.90000n   50.0000m
   42.00000n    0.
   42.10000n    0.
   42.20000n    0.
   42.30000n    0.
   42.40000n    0.
   42.50000n    0.
   42.60000n    0.
   42.70000n    0.
   42.80000n    0.
   42.90000n    0.
   43.00000n    0.
   43.10000n    0.
   43.20000n    0.
   43.30000n    0.
   43.40000n    0.
   43.50000n    0.
   43.60000n    0.
   43.70000n    0.
   43.80000n    0.
   43.90000n    0.
   44.00000n    0.
   44.10000n    0.
   44.20000n    0.
   44.30000n    0.
   44.40000n    0.
   44.50000n    0.
   44.60000n    0.
   44.70000n    0.
   44.80000n    0.
   44.90000n    0.
   45.00000n    0.
   45.10000n    0.
   45.20000n    0.
   45.30000n    0.
   45.40000n    0.
   45.50000n    0.
   45.60000n    0.
   45.70000n    0.
   45.80000n    0.
   45.90000n    0.
   46.00000n    0.
   46.10000n    0.
   46.20000n    0.
   46.30000n    0.
   46.40000n    0.
   46.50000n    0.
   46.60000n    0.
   46.70000n    0.
   46.80000n    0.
   46.90000n    0.
   47.00000n    0.
y
x

 time         voltage
             ci0
    0.          0.
  100.00000p    0.
  200.00000p    0.
  300.00000p    0.
  400.00000p    0.
  500.00000p    0.
  600.00000p    0.
  700.00000p    0.
  800.00000p    0.
  900.00000p    0.
    1.00000n    0.
    1.10000n    0.
    1.20000n    0.
    1.30000n    0.
    1.40000n    0.
    1.50000n    0.
    1.60000n    0.
    1.70000n    0.
    1.80000n    0.
    1.90000n    0.
    2.00000n    0.
    2.10000n    0.
    2.20000n    0.
    2.30000n    0.
    2.40000n    0.
    2.50000n    0.
    2.60000n    0.
    2.70000n    0.
[...]
   22.70000n    1.0000
   22.80000n    1.0000
   22.90000n    1.0000
   23.00000n  999.9990m
   23.10000n  999.9973m
   23.20000n  999.9955m
   23.30000n  999.9937m
   23.40000n  999.9919m
   23.50000n  999.9927m
   23.60000n  999.9937m
   23.70000n  999.9947m
   23.80000n  999.9957m
   23.90000n  999.9967m
   24.00000n  999.9977m
   24.10000n  999.9987m
   24.20000n  999.9997m
   24.30000n    1.0000
   24.40000n    1.0000
   24.50000n    1.0000
   24.60000n    1.0000
   24.70000n    1.0000
   24.80000n    1.0000
   24.90000n    1.0000
   25.00000n    1.0000
   25.10000n    1.0000
   25.20000n    1.0000
   25.30000n    1.0000
   25.40000n    1.0000
   25.50000n    1.0000
   25.60000n  999.9991m
   25.70000n  999.9975m
   25.80000n  999.9959m
   25.90000n  999.9944m
   26.00000n  999.9928m
   26.10000n    1.0000
   26.20000n  999.9931m
   26.30000n  999.9890m
   26.40000n  999.9849m
   26.50000n  999.9960m
   26.60000n    1.0000
   26.70000n    1.0000
   26.80000n    1.0000
   26.90000n  999.9899m
   27.00000n  999.9585m
   27.10000n  999.9276m
   27.20000n  999.8743m
   27.30000n  999.7121m
   27.40000n  999.4877m
   27.50000n    1.0008
   27.60000n    1.0164
   27.70000n    1.0440
   27.80000n  508.9246m
   27.90000n    2.5504m
   28.00000n  941.3541u
   28.10000n    1.2519m
   28.20000n -864.1021u
   28.30000n   -8.0387m
   28.40000n  -20.0937m
   28.50000n  797.4329m
   28.60000n  995.6687m
   28.70000n  999.8307m
   28.80000n    1.0000
   28.90000n  999.9652m
   29.00000n  999.9850m
   29.10000n    1.0000
   29.20000n    1.0000
   29.30000n  999.9998m
   29.40000n  999.9915m
   29.50000n  999.9907m
   29.60000n  999.9953m
   29.70000n  999.9998m
   29.80000n    1.0000
   29.90000n    1.0000
   30.00000n    1.0000
   30.10000n    1.0000
   30.20000n    1.0000
   30.30000n    1.0000
   30.40000n  999.9978m
   30.50000n  999.9957m
   30.60000n  999.9935m
   30.70000n  999.9914m
   30.80000n  999.9924m
   30.90000n  999.9934m
   31.00000n  999.9943m
   31.10000n  999.9953m
   31.20000n  999.9962m
   31.30000n  999.9972m
   31.40000n  999.9982m
   31.50000n  999.9991m
   31.60000n    1.0000
   31.70000n    1.0000
   31.80000n    1.0000
   31.90000n    1.0000
   32.00000n    1.0000
   32.10000n    1.0000
   32.20000n    1.0000
   32.30000n    1.0000
   32.40000n    1.0000
   32.50000n    1.0000
   32.60000n    1.0000
   32.70000n    1.0000
   32.80000n  999.9980m
   32.90000n  999.9955m
   33.00000n  999.9930m
   33.10000n    1.0000
   33.20000n  999.9933m
   33.30000n  999.9807m
   33.40000n  999.9854m
   33.50000n  999.9974m
   33.60000n    1.0000
   33.70000n    1.0000
   33.80000n  999.9749m
   33.90000n  999.9617m
   34.00000n  999.9282m
   34.10000n  999.8898m
   34.20000n  999.8772m
   34.30000n  999.9068m
   34.40000n    1.0002
   34.50000n    1.0013
   34.60000n    1.0114
   34.70000n    1.0420
   34.80000n  737.9111m
   34.90000n    7.4895m
   35.00000n    2.1364m
   35.10000n   -6.2518m
   35.20000n  -35.6407m
   35.30000n  454.7542m
   35.40000n  982.4051m
   35.50000n  998.6948m
   35.60000n  999.8330m
   35.70000n  999.9876m
   35.80000n  999.9607m
   35.90000n  999.9673m
   36.00000n  999.9855m
   36.10000n    1.0000
   36.20000n  999.9962m
   36.30000n  999.9921m
   36.40000n  999.9880m
   36.50000n  999.9839m
   36.60000n  999.9848m
   36.70000n  999.9879m
   36.80000n  999.9909m
   36.90000n  999.9940m
   37.00000n  999.9971m
   37.10000n    1.0000
   37.20000n    1.0000
   37.30000n    1.0000
   37.40000n    1.0000
   37.50000n    1.0000
   37.60000n    1.0000
   37.70000n    1.0000
   37.80000n    1.0000
   37.90000n    1.0000
   38.00000n  999.9985m
   38.10000n  999.9967m
   38.20000n  999.9948m
   38.30000n  999.9930m
   38.40000n  999.9912m
   38.50000n  999.9894m
   38.60000n  999.9893m
   38.70000n  999.9907m
   38.80000n  999.9922m
   38.90000n  999.9937m
   39.00000n  999.9951m
   39.10000n  999.9966m
   39.20000n  999.9981m
   39.30000n  999.9996m
   39.40000n    1.0000
   39.50000n    1.0000
   39.60000n    1.0000
   39.70000n    1.0000
   39.80000n    1.0000
   39.90000n    1.0000
   40.00000n    1.0000
   40.10000n  999.9449m
   40.20000n  999.9746m
   40.30000n  999.9861m
   40.40000n  999.9977m
   40.50000n    1.0000
   40.60000n  999.9807m
   40.70000n  999.9599m
   40.80000n  999.9392m
   40.90000n  999.9184m
   41.00000n  999.9739m
   41.10000n    1.0001
   41.20000n    1.0004
   41.30000n    1.0012
   41.40000n    1.0023
   41.50000n    1.0076
   41.60000n    1.0174
   41.70000n  998.6317m
   41.80000n  691.6526m
   41.90000n    7.3323m
   42.00000n    1.5974m
   42.10000n  599.9539u
   42.20000n  215.8805u
   42.30000n   69.0594u
   42.40000n -121.1695u
   42.50000n -752.4878u
   42.60000n   -1.4424m
   42.70000n    1.1934m
   42.80000n  168.0277u
   42.90000n   -4.9005m
   43.00000n  -28.9657m
   43.10000n  464.7865m
   43.20000n  986.8435m
   43.30000n  999.6489m
   43.40000n  999.9951m
   43.50000n  999.9503m
   43.60000n  999.9754m
   43.70000n    1.0000
   43.80000n  999.9983m
   43.90000n  999.9929m
   44.00000n  999.9874m
   44.10000n  999.9907m
   44.20000n  999.9947m
   44.30000n  999.9987m
   44.40000n    1.0000
   44.50000n    1.0000
   44.60000n    1.0000
   44.70000n    1.0000
   44.80000n    1.0000
   44.90000n  999.9991m
   45.00000n  999.9977m
   45.10000n  999.9963m
   45.20000n  999.9949m
   45.30000n  999.9935m
   45.40000n  999.9941m
   45.50000n  999.9951m
   45.60000n  999.9961m
   45.70000n  999.9971m
   45.80000n  999.9981m
   45.90000n  999.9991m
   46.00000n    1.0000
   46.10000n    1.0000
   46.20000n    1.0000
   46.30000n    1.0000
   46.40000n    1.0000
   46.50000n    1.0000
   46.60000n    1.0000
   46.70000n    1.0000
   46.80000n  999.9995m
   46.90000n  999.9975m
   47.00000n  999.9955m
y
x

 time         voltage
             cout
    0.       1000.0000m
  100.00000p 1000.0000m
  200.00000p 1000.0000m
  300.00000p 1000.0000m
  400.00000p 1000.0000m
  500.00000p 1000.0000m
  600.00000p 1000.0000m
  700.00000p 1000.0000m
  800.00000p 1000.0000m
  900.00000p 1000.0000m
    1.00000n 1000.0000m
    1.10000n 1000.0000m
    1.20000n 1000.0000m
    1.30000n 1000.0000m
    1.40000n 1000.0000m
    1.50000n 1000.0000m
    1.60000n 1000.0000m
    1.70000n 1000.0000m
    1.80000n 1000.0000m
    1.90000n 1000.0000m
    2.00000n 1000.0000m
    2.10000n 1000.0000m
    2.20000n 1000.0000m
    2.30000n 1000.0000m
    2.40000n 1000.0000m
    2.50000n 1000.0000m
    2.60000n 1000.0000m
    2.70000n 1000.0000m
    2.80000n 1000.0000m
    2.90000n 1000.0000m
    3.00000n 1000.0000m
    3.10000n 1000.0000m
    3.20000n 1000.0000m
    3.30000n 1000.0000m
    3.40000n 1000.0000m
    3.50000n 1000.0000m
    3.60000n 1000.0000m
    3.70000n 1000.0000m
    3.80000n 1000.0000m
    3.90000n 1000.0000m
    4.00000n 1000.0000m
    4.10000n 1000.0000m
    4.20000n 1000.0000m
    4.30000n 1000.0000m
    4.40000n 1000.0000m
    4.50000n 1000.0000m
    4.60000n 1000.0000m
    4.70000n 1000.0000m
    4.80000n 1000.0000m
    4.90000n 1000.0000m
    5.00000n 1000.0000m
    5.10000n  999.8842m
    5.20000n  999.9811m
    5.30000n  999.9827m
    5.40000n  999.9843m
    5.50000n  999.9813m
    5.60000n  999.9402m
    5.70000n  999.8990m
    5.80000n  999.8579m
    5.90000n  999.8303m
    6.00000n  999.9594m
    6.10000n    1.0001
    6.20000n    1.0006
    6.30000n    1.0013
    6.40000n    1.0030
    6.50000n    1.0055
    6.60000n    1.0078
    6.70000n    1.0123
    6.80000n    1.0200
    6.90000n  956.0022m
    7.00000n  469.8707m
    7.10000n    5.2644m
    7.20000n    3.1268m
    7.30000n  981.8066u
    7.40000n  122.3647u
    7.50000n  -23.2892u
    7.60000n  -27.5726u
    7.70000n  -32.9344u
    7.80000n  -22.9431u
    7.90000n  -12.6085u
    8.00000n   -7.7547u
    8.10000n   -3.7768u
    8.20000n   -1.7616u
    8.30000n -144.4375n
    8.40000n -398.0214n
    8.50000n -651.6053n
    8.60000n -429.4664n
    8.70000n  -60.9195n
    8.80000n  307.6273n
    8.90000n  468.0366n
    9.00000n  271.8989n
    9.10000n   75.7613n
    9.20000n -120.3763n
    9.30000n -316.5139n
    9.40000n -512.6516n
    9.50000n -553.9784n
    9.60000n -455.4355n
    9.70000n -356.8927n
    9.80000n -258.3498n
    9.90000n -159.8069n
   10.00000n  -61.2640n
   10.10000n   37.2788n
   10.20000n  135.8217n
   10.30000n  234.3646n
   10.40000n  332.9075n
   10.50000n  431.4503n
   10.60000n  529.9932n
   10.70000n  526.0424n
   10.80000n  441.0152n
   10.90000n  355.9880n
   11.00000n  270.9608n
   11.10000n  185.9336n
   11.20000n  100.9064n
   11.30000n   15.8792n
   11.40000n  -69.1480n
   11.50000n -154.1751n
   11.60000n -239.2023n
   11.70000n -324.2295n
   11.80000n -409.2567n
   11.90000n -494.2839n
   12.00000n -579.3111n
   12.10000n  -38.9451n
   12.20000n -245.6846n
   12.30000n  -41.8742n
   12.40000n  161.9362n
   12.50000n  245.8979n
   12.60000n  128.7836n
   12.70000n   11.6693n
   12.80000n -105.4449n
   12.90000n -222.5592n
   13.00000n -114.9468n
   13.10000n   45.3333n
   13.20000n  180.0343n
   13.30000n  232.6017n
   13.40000n  117.0309n
   13.50000n   -1.1754u
   13.60000n    1.7683u
   13.70000n -988.8310n
   13.80000n -367.4420n
   13.90000n  463.0900n
   14.00000n -313.3716n
   14.10000n  159.2308n
   14.20000n   92.7757n
   14.30000n  -22.8037n
   14.40000n  -98.6232n
   14.50000n  -30.0760n
   14.60000n   38.4711n
   14.70000n   92.7415n
   14.80000n   54.8161n
   14.90000n   16.8906n
   15.00000n  -21.0349n
   15.10000n  -58.9604n
   15.20000n  -64.7300n
   15.30000n  -39.7370n
   15.40000n  -14.7441n
   15.50000n   10.2489n
   15.60000n   35.2418n
   15.70000n   60.2348n
   15.80000n   83.1970n
   15.90000n   67.8128n
   16.00000n   52.4286n
   16.10000n   37.0444n
   16.20000n   21.6602n
   16.30000n    6.2760n
   16.40000n   -9.1082n
   16.50000n  -24.4924n
   16.60000n  -39.8766n
   16.70000n  -55.2607n
   16.80000n  -67.6442n
   16.90000n  -56.8512n
   17.00000n  -46.0581n
   17.10000n  -35.2651n
   17.20000n  -24.4720n
   17.30000n  -13.6790n
   17.40000n   -2.8859n
   17.50000n    7.9071n
   17.60000n   18.7002n
   17.70000n   29.4932n
   17.80000n   40.2863n
   17.90000n   51.0793n
   18.00000n   61.8724n
   18.10000n   72.6654n
   18.20000n   75.2999n
   18.30000n   57.9093n
   18.40000n   40.5186n
   18.50000n   23.1279n
   18.60000n    5.7373n
   18.70000n  -11.6534n
   18.80000n  -29.0440n
   18.90000n  -46.4347n
   19.00000n  -63.8254n
   19.10000n -124.2314n
   19.20000n -307.3449n
   19.30000n   64.8927n
   19.40000n  331.4872n
   19.50000n  182.3019n
   19.60000n   33.1165n
   19.70000n -116.0689n
   19.80000n -193.7525n
   19.90000n -150.4372n
   20.00000n -228.8433n
   20.10000n -546.0424n
   20.20000n -863.2414n
   20.30000n   -2.0168u
   20.40000n   -6.8333u
   20.50000n   53.3380u
   20.60000n  373.8992u
   20.70000n  426.8283u
   20.80000n   -1.3483m
   20.90000n -523.1234u
   21.00000n  250.3033u
   21.10000n  227.3026u
   21.20000n  127.6474u
   21.30000n   59.7251u
   21.40000n   24.0864u
   21.50000n   13.9952u
   21.60000n    3.9040u
   21.70000n    1.8931u
   21.80000n    1.3324u
   21.90000n  771.5909n
   22.00000n  532.9310n
   22.10000n  475.1621n
   22.20000n  417.3932n
   22.30000n  359.6243n
   22.40000n  301.8554n
   22.50000n  284.0694n
   22.60000n  288.9187n
   22.70000n  293.7679n
   22.80000n  298.6172n
   22.90000n  303.4664n
   23.00000n  308.3157n
   23.10000n  313.1649n
   23.20000n  318.0142n
   23.30000n  322.8634n
   23.40000n  327.7126n
   23.50000n  305.1967n
   23.60000n  280.7075n
   23.70000n  256.2183n
   23.80000n  231.7291n
   23.90000n  207.2399n
   24.00000n  182.7507n
   24.10000n  158.2615n
   24.20000n  133.7723n
   24.30000n  109.2831n
   24.40000n   84.7939n
   24.50000n   60.3047n
   24.60000n   35.8155n
   24.70000n   11.3263n
   24.80000n  -13.1629n
   24.90000n  -37.6521n
   25.00000n  -62.1413n
   25.10000n  -51.2190n
   25.20000n  -19.9519n
   25.30000n   11.3152n
   25.40000n   42.5823n
   25.50000n   73.8495n
   25.60000n  105.1166n
   25.70000n  136.3837n
   25.80000n  167.6508n
   25.90000n  198.9179n
   26.00000n  230.1851n
   26.10000n   60.4865u
   26.20000n   40.8972u
   26.30000n   23.8051u
   26.40000n    6.7131u
   26.50000n   10.3667u
   26.60000n   14.6270u
   26.70000n   18.8874u
   26.80000n   23.1478u
   26.90000n  -29.4506u
   27.00000n -298.4074u
   27.10000n -711.3200u
   27.20000n   -1.8057m
   27.30000n   -6.2199m
   27.40000n  -12.0386m
   27.50000n    2.0972m
   27.60000n  660.6938m
   27.70000n  989.1805m
   27.80000n  998.5467m
   27.90000n  998.4721m
   28.00000n    1.0040
   28.10000n    1.0282
   28.20000n    1.0123
   28.30000n  301.4719m
   28.40000n    3.1275m
   28.50000n    1.4473m
   28.60000n  772.8928u
   28.70000n  378.7140u
   28.80000n  173.6881u
   28.90000n   64.7053u
   29.00000n   38.3109u
   29.10000n   12.3629u
   29.20000n    1.2427u
   29.30000n -257.9556n
   29.40000n   -1.7586u
   29.50000n   -1.9026u
   29.60000n   -1.1035u
   29.70000n -304.4662n
   29.80000n  494.6098n
   29.90000n    1.2870u
   30.00000n  974.1895n
   30.10000n  661.4267n
   30.20000n  348.6640n
   30.30000n   35.9012n
   30.40000n -276.8616n
   30.50000n -589.6244n
   30.60000n -902.3872n
   30.70000n   -1.1900u
   30.80000n   -1.0507u
   30.90000n -911.3677n
   31.00000n -772.0489n
   31.10000n -632.7301n
   31.20000n -493.4114n
   31.30000n -354.0926n
   31.40000n -214.7738n
   31.50000n  -75.4551n
   31.60000n   63.8637n
   31.70000n  203.1825n
   31.80000n  342.5012n
   31.90000n  481.8200n
   32.00000n  621.1388n
   32.10000n  760.4575n
   32.20000n  899.7763n
   32.30000n    1.0391u
   32.40000n    1.1784u
   32.50000n  837.1919n
   32.60000n  439.1486n
   32.70000n   41.1052n
   32.80000n -356.9382n
   32.90000n -754.9815n
   33.00000n   -1.1530u
   33.10000n  115.6071u
   33.20000n   72.0748u
   33.30000n   29.2096u
   33.40000n   22.6580u
   33.50000n   31.2973u
   33.60000n   39.9365u
   33.70000n   48.5758u
   33.80000n   12.3738u
   33.90000n  -47.1015u
   34.00000n -446.5540u
   34.10000n -902.9111u
   34.20000n   -2.0427m
   34.30000n   -4.2943m
   34.40000n   10.9848m
   34.50000n   96.8513m
   34.60000n  408.5109m
   34.70000n  944.3546m
   34.80000n  997.8463m
   34.90000n    1.0005
   35.00000n    1.0002
   35.10000n  998.1100m
   35.20000n  999.8692m
   35.30000n    1.0004
   35.40000n    1.0001
   35.50000n    1.0000
   35.60000n    1.0000
   35.70000n    1.0000
   35.80000n    1.0000
   35.90000n    1.0000
   36.00000n    1.0000
   36.10000n    1.0000
   36.20000n    1.0000
   36.30000n    1.0000
   36.40000n    1.0000
   36.50000n    1.0000
   36.60000n    1.0000
   36.70000n    1.0000
   36.80000n    1.0000
   36.90000n    1.0000
   37.00000n    1.0000
   37.10000n    1.0000
   37.20000n 1000.0000m
   37.30000n  999.9999m
   37.40000n  999.9998m
   37.50000n  999.9999m
   37.60000n  999.9999m
   37.70000n  999.9999m
   37.80000n 1000.0000m
   37.90000n    1.0000
   38.00000n    1.0000
   38.10000n    1.0000
   38.20000n    1.0000
   38.30000n    1.0000
   38.40000n    1.0000
   38.50000n    1.0000
   38.60000n    1.0000
   38.70000n    1.0000
   38.80000n    1.0000
   38.90000n    1.0000
   39.00000n    1.0000
   39.10000n    1.0000
   39.20000n    1.0000
   39.30000n    1.0000
   39.40000n 1000.0000m
   39.50000n  999.9999m
   39.60000n  999.9999m
   39.70000n  999.9999m
   39.80000n  999.9998m
   39.90000n  999.9998m
   40.00000n  999.9998m
   40.10000n  999.9667m
   40.20000n  999.9983m
   40.30000n  999.9986m
   40.40000n  999.9988m
   40.50000n  999.9982m
   40.60000n  999.9950m
   40.70000n  999.9918m
   40.80000n  999.9886m
   40.90000n  999.9854m
   41.00000n    1.0000
   41.10000n    1.0001
   41.20000n    1.0001
   41.30000n    1.0002
   41.40000n    1.0003
   41.50000n    1.0001
   41.60000n  999.8772m
   41.70000n  999.8702m
   41.80000n  999.9966m
   41.90000n    1.0002
   42.00000n  999.7421m
   42.10000n  999.7982m
   42.20000n  999.9547m
   42.30000n  999.9640m
   42.40000n  999.7177m
   42.50000n  998.3500m
   42.60000n    1.0022
   42.70000n    1.0219
   42.80000n    1.0432
   42.90000n  589.4019m
   43.00000n   -8.0556m
   43.10000n  818.1740u
   43.20000n  741.3149u
   43.30000n  352.8183u
   43.40000n  142.0385u
   43.50000n   52.5291u
   43.60000n   25.6079u
   43.70000n   -1.3132u
   43.80000n   -1.7177u
   43.90000n  965.6228n
   44.00000n    3.6489u
   44.10000n    2.1846u
   44.20000n  410.4452n
   44.30000n   -1.3637u
   44.40000n   -3.1379u
   44.50000n   -3.9189u
   44.60000n   -2.8905u
   44.70000n   -1.8621u
   44.80000n -833.6852n
   44.90000n  194.7173n
   45.00000n    1.2231u
   45.10000n    2.2515u
   45.20000n    3.2799u
   45.30000n    4.3083u
   45.40000n    3.8533u
   45.50000n    3.1155u
   45.60000n    2.3777u
   45.70000n    1.6400u
   45.80000n  902.2169n
   45.90000n  164.4574n
   46.00000n -573.3020n
   46.10000n   -1.3111u
   46.20000n   -2.0488u
   46.30000n   -2.7866u
   46.40000n   -3.5243u
   46.50000n   -4.2621u
   46.60000n   -2.8526u
   46.70000n   -1.0194u
   46.80000n  813.8373n
   46.90000n    2.6471u
   47.00000n    4.4803u
y
 pwr=  18.4296u  from=   0.             to=  47.0000n
 tdelay=   2.1028n  targ=  43.1028n   trig=  41.0000n

          ***** job concluded
 ******
 **3bit ripple carry adder

 ****** job statistics summary tnom=  25.000 temp=  25.000 ******

 ******  Machine Information  ******
 CPU:
 model name     : Intel(R) Xeon(R) CPU           E5620  @ 2.40GHz
 cpu MHz        : 1596.000

 OS:
 Linux version 2.6.32-696.30.1.el6.x86_64 (mockbuild@c1bl.rdu2.centos.org) (gcc version 4.4.7 20120313 (Red Hat 4.4.7-18) (GCC) ) #1 SMP Tue May 22 03:28:18 UTC 2018


  ******  HSPICE Threads Information  ******

  Command Line Threads Count :     1
  Available CPU Count        :    16
  Actual Threads Count       :     1


  ******  Circuit Statistics  ******
  # nodes       =     219 # elements   =      98
  # resistors   =       0 # capacitors =       6 # inductors   =       0
  # mutual_inds =       0 # vccs       =       0 # vcvs        =       0
  # cccs        =       0 # ccvs       =       0 # volt_srcs   =       8
  # curr_srcs   =       0 # diodes     =       0 # bjts        =       0
  # jfets       =       0 # mosfets    =      84 # U elements  =       0
  # T elements  =       0 # W elements =       0 # B elements  =       0
  # S elements  =       0 # P elements =       0 # va device   =       0
  # vector_srcs =       0 # N elements =       0


  ******  Runtime Statistics (seconds)  ******

  analysis           time    # points   tot. iter  conv.iter
  op point           0.01           1          46
  transient          0.26         471        1088         350 rev=        65
  readin             0.01
  errchk             0.01
  setup              0.00
  output             0.00


           peak memory used        360.23 megabytes
           total cpu time            0.40 seconds
           total elapsed time        0.54 seconds
           job started at     01:02:47 11/27/2023
           job ended   at     01:02:47 11/27/2023

>info:         ***** hspice job concluded
           job total runtime         0.54 seconds


 lic: Release hspice token(s)
 lic: total license checkout elapse time:        0.14(s)
